LTspice 24.1.9 for Windows
Circuit: E:\Documents\Masters\Project\Simulation\Draft3.net
Start Time: Mon Nov 17 19:38:33 2025
solver = Normal
Maximum thread count: 12
tnom = 27
temp = 27
method = trap
Direct Newton iteration for .op point succeeded.
Total elapsed time: 0.033 seconds.

Files loaded:
E:\Documents\Masters\Project\Simulation\Draft3.net

