LTspice 24.1.9 for Windows
Circuit: E:\Documents\Masters\Project\Simulation\Draft2.net
Start Time: Mon Nov 17 01:10:25 2025
Options: Thev_Induc=1  reltol=1e-3 abstol=5u
solver = Normal
Maximum thread count: 12
tnom = 27
temp = 27
method = trap
abstol = 5e-06
C1: Increased Cpar to 1e-12
C2: Increased Cpar to 1e-08
C4: Increased Cpar to 1e-11
C5: Increased Cpar to 7.5e-11
Direct Newton iteration failed to find .op point.  (Use ".option noopiter" to skip.)
Starting Gmin stepping
Gmin = 10
Gmin = 1.07374
vernier = 0.5
vernier = 0.25
vernier = 0.125
vernier = 0.0625
vernier = 0.03125
vernier = 0.015625
vernier = 0.0078125
vernier = 0.00390625
vernier = 0.00195312
vernier = 0.000976562
Gmin = 1.34218
vernier = 0.000488281
Gmin = 0
Gmin stepping failed

Starting source stepping with srcstepmethod=0
Source Step = 3.0303%
Source Step = 33.3333%
Source Step = 63.6364%
Source Step = 93.9394%
Source stepping succeeded in finding the operating point.

Total elapsed time: 9.511 seconds.

Files loaded:
E:\Documents\Masters\Project\Simulation\Draft2.net
C:\Users\conor\AppData\Local\LTspice\lib\cmp\standard.dio
E:\Documents\Masters\Project\Simulation\MOSFETS\OptiMOS6\OptiMOS6_40V_Halfbridges_LTSpice.lib
C:\Users\conor\AppData\Local\LTspice\lib\sub\AD8411A.sub
C:\Users\conor\AppData\Local\LTspice\lib\sub\LT1017.sub
C:\Users\conor\AppData\Local\LTspice\lib\sub\LTC7063.sub

