LTspice 24.1.9 for Windows
Circuit: E:\Documents\Masters\Project\Simulation\Draft3.net
Start Time: Wed Oct 15 23:55:29 2025
solver = Normal
Maximum thread count: 12
tnom = 27
temp = 27
method = trap
WARNING: Node u1:n004 is floating.
ERROR: Node u2:gate is floating and connected to current source u2:bgsdiode

Direct Newton iteration for .op point succeeded.
Total elapsed time: 0.180 seconds.

Files loaded:
E:\Documents\Masters\Project\Simulation\Draft3.net
E:\Documents\Masters\Project\Simulation\EPC\EPC23101\EPC23101_model.net
E:\Documents\Masters\Project\Simulation\EPC\EPCGaNLibrary.lib

