LTspice 24.1.9 for Windows
Circuit: E:\Documents\Masters\Project\Simulation\GaN.net
Start Time: Tue Oct 28 17:26:47 2025
solver = Normal
Maximum thread count: 12
tnom = 27
temp = 27
method = trap
E:\Documents\Masters\Project\Simulation\GaN.net(21): Limiting fall time to 2.03288e-20.

V2 N003 0 PULSE(0 1 0 {1/FREQ} 0 0 {1/FREQ})
^^^^^^^^^^^^^^^^^^^^^^^^^^^^^^^^^^^^^^^^^^^^
WARNING: Node l2:n3 is floating.

Direct Newton iteration failed to find .op point.  (Use ".option noopiter" to skip.)
Starting Gmin stepping
Gmin = 10
Gmin = 1.07374
Gmin = 0.115292
Gmin = 0.0123794
Gmin = 0.00132923
Gmin = 0.000142725
vernier = 0.5
vernier = 0.25
vernier = 0.125
vernier = 0.0625
vernier = 0.03125
vernier = 0.015625
vernier = 0.0078125
vernier = 0.00390625
Gmin = 0.00011418
vernier = 0.00195312
vernier = 0.000976562
vernier = 0.000488281
Gmin = 0
Gmin stepping failed

Starting source stepping with srcstepmethod=0
Source Step = 3.0303%
Source Step = 33.3333%
Source Step = 63.6364%
Source Step = 93.9394%
Source stepping succeeded in finding the operating point.

Singular matrix:  Check node nc_01
   Iteration No. 2
Total elapsed time: 0.000 seconds.
Singular matrix:  check node nc_01
   Iteration No. 2

This circuit has floating nodes.
Try menu command View=>SPICE Error Log.