LTspice 24.1.9 for Windows
Circuit: E:\Documents\Masters\Project\Simulation\GaN.net
Start Time: Thu Oct 16 00:00:47 2025
solver = Normal
Maximum thread count: 12
tnom = 27
temp = 27
method = trap
E:\Documents\Masters\Project\Simulation\GaN.net(17): Limiting fall time to 1.01644e-20.

V2 N003 0 PULSE(0 1 0 {1/FREQ} 0 0 {1/FREQ})
^^^^^^^^^^^^^^^^^^^^^^^^^^^^^^^^^^^^^^^^^^^^
Direct Newton iteration failed to find .op point.  (Use ".option noopiter" to skip.)
Starting Gmin stepping
Gmin = 10
Gmin = 1.07374
Gmin = 0.115292
Gmin = 0.0123794
Gmin = 0.00132923
Gmin = 0.000142725
vernier = 0.5
vernier = 0.25
vernier = 0.125
vernier = 0.0625
vernier = 0.03125
vernier = 0.015625
vernier = 0.0078125
vernier = 0.00390625
Gmin = 0.00011418
vernier = 0.00195312
vernier = 0.000976562
vernier = 0.000488281
Gmin = 0
Gmin stepping failed

Starting source stepping with srcstepmethod=0
Source Step = 3.0303%
Source Step = 33.3333%
Source Step = 63.6364%
Source Step = 78.7997%
vernier = 0.000976562
Starting source stepping with srcstepmethod=1
Source Step = 3.0303%
vernier = 0.25
Source stepping failed

Pseudo Transient succeeded in finding the operating point at 327.69 ms.
Warning: Simulation tolerance relaxed to achieve convergence from 9.2125000000443241e-03 to 9.2125000000443345e-03 seconds.
Warning: Simulation tolerance relaxed to achieve convergence from 9.2125000000443553e-03 to 9.2125000000443658e-03 seconds.
Warning: Simulation tolerance relaxed to achieve convergence from 2.0962499999982304e-02 to 2.0962499999982405e-02 seconds.
Warning: Simulation tolerance relaxed to achieve convergence from 3.4162500000009192e-02 to 3.4162500000009290e-02 seconds.
Warning: Simulation tolerance relaxed to achieve convergence from 3.8762499999998194e-02 to 3.8762499999998291e-02 seconds.
Warning: Simulation tolerance relaxed to achieve convergence from 3.8762500000010774e-02 to 3.8762500000010872e-02 seconds.
Warning: Simulation tolerance relaxed to achieve convergence from 3.8762500000010872e-02 to 3.8762500000010969e-02 seconds.
Warning: Simulation tolerance relaxed to achieve convergence from 3.8762500000011364e-02 to 3.8762500000011461e-02 seconds.
Warning: Simulation tolerance relaxed to achieve convergence from 4.2212500000002269e-02 to 4.2212500000002366e-02 seconds.
Warning: Simulation tolerance relaxed to achieve convergence from 4.2212500000002366e-02 to 4.2212500000002463e-02 seconds.
Warning: Simulation tolerance relaxed to achieve convergence from 4.2212500000002463e-02 to 4.2212500000002560e-02 seconds.
Warning: Simulation tolerance relaxed to achieve convergence from 4.2212500000002762e-02 to 4.2212500000002859e-02 seconds.
Warning: Simulation tolerance relaxed to achieve convergence from 5.1512500000002161e-02 to 5.1512500000002258e-02 seconds.
Warning: Simulation tolerance relaxed to achieve convergence from 6.0562499999997486e-02 to 6.0562499999997584e-02 seconds.
Warning: Simulation tolerance relaxed to achieve convergence from 6.0562500000002371e-02 to 6.0562500000002469e-02 seconds.
Warning: Simulation tolerance relaxed to achieve convergence from 6.6012500000000002e-02 to 6.6012500000000099e-02 seconds.
Warning: Simulation tolerance relaxed to achieve convergence from 8.6012499999999700e-02 to 8.6012499999999797e-02 seconds.
Warning: Simulation tolerance relaxed to achieve convergence from 8.6012499999999992e-02 to 8.6012500000000089e-02 seconds.
Total elapsed time: 57.352 seconds.

Files loaded:
E:\Documents\Masters\Project\Simulation\GaN.net
C:\Users\conor\AppData\Local\LTspice\lib\cmp\standard.dio
E:\Documents\Masters\Project\Simulation\EPC\EPC23101\EPC23101_model.net
E:\Documents\Masters\Project\Simulation\EPC\EPCGaNLibrary.lib

