LTspice 24.1.9 for Windows
Circuit: E:\Documents\Masters\Project\Simulation\GeecHalf-Bridge.net
Start Time: Sun Dec 14 21:03:15 2025
Options: Thev_Induc=1  reltol=1e-3 abstol=5u
solver = Normal
Maximum thread count: 12
tnom = 27
temp = 27
method = trap
abstol = 5e-06
C2: Increased Cpar to 4.7e-10
Early termination of direct N-R iteration.
Direct Newton iteration failed to find .op point.  (Use ".option noopiter" to skip.)
Starting Gmin stepping
Gmin = 10
Gmin = 1.07374
vernier = 0.5
vernier = 0.25
vernier = 0.125
Gmin = 1.11693
vernier = 0.0625
vernier = 0.03125
Gmin = 1.06579
vernier = 0.015625
vernier = 0.0208333
vernier = 0.0104167
Gmin = 1.04791
vernier = 0.00520833
vernier = 0.00260417
vernier = 0.00130208
vernier = 0.000651042
vernier = 0.000488281
Gmin = 0
Gmin stepping failed

Starting source stepping with srcstepmethod=0
Source Step = 3.0303%
Source Step = 33.3333%
Source Step = 63.6364%
Source Step = 93.9394%
Source stepping succeeded in finding the operating point.

Total elapsed time: 1605.521 seconds.

Files loaded:
E:\Documents\Masters\Project\Simulation\GeecHalf-Bridge.net
C:\Users\conor\AppData\Local\LTspice\lib\cmp\standard.dio
C:\Users\conor\AppData\Local\LTspice\lib\cmp\standard.mos
E:\Documents\Masters\Project\Simulation\MOSFETS\OptiMOS6\OptiMOS6_40V_Halfbridges_LTSpice.lib
E:\Documents\Masters\Project\Simulation\ADuM3190\ADuM3190B.sub
C:\Users\conor\AppData\Local\LTspice\lib\sub\AD8411A.sub
C:\Users\conor\AppData\Local\LTspice\lib\sub\Contrib\Wurth\WCAP-CSGP_25V_DCbias.lib
C:\Users\conor\AppData\Local\LTspice\lib\sub\LTC7004.sub
C:\Users\conor\AppData\Local\LTspice\lib\sub\LTC7063.sub
C:\Users\conor\AppData\Local\LTspice\lib\sub\MAX9095.sub

e_out: INTEG(V(out)*I(R2))=0.101922503806 FROM 0.0015 TO 0.0025
e_in: INTEG(V(Vin)*I(V1))=-0.216742955547 FROM 0.0015 TO 0.0025
