LTspice 24.1.8 for Windows
Circuit: C:\Users\conor\Documents\College\Masters\Thesis\GeecPE2526\Simulation\GeecHalf-Bridge.net
Start Time: Mon Dec  8 13:42:30 2025
Options: Thev_Induc=1  reltol=1e-3 abstol=5u
solver = Normal
Maximum thread count: 12
tnom = 27
temp = 27
method = trap
abstol = 5e-06
C1: Increased Cpar to 1e-12
C2: Increased Cpar to 1e-08
C4: Increased Cpar to 1e-11
C5: Increased Cpar to 7.5e-11
Direct Newton iteration failed to find .op point.  (Use ".option noopiter" to skip.)
Starting Gmin stepping
Gmin = 10
Gmin = 1.07374
vernier = 0.5
vernier = 0.25
vernier = 0.125
vernier = 0.0625
vernier = 0.03125
vernier = 0.015625
vernier = 0.0078125
Gmin = 1.18892
vernier = 0.00390625
vernier = 0.00195312
vernier = 0.000976562
vernier = 0.000488281
Gmin = 0
Gmin stepping failed

Starting source stepping with srcstepmethod=0
Source Step = 3.0303%
Source Step = 33.3333%
Source Step = 47.9167%
Source Step = 48.0439%
Source Step = 48.0735%
Source Step = 48.1031%
Source Step = 48.1327%
Source Step = 48.1623%
Source Step = 48.1919%
vernier = 0.00146484
Source Step = 48.2333%
Source Step = 48.2777%
Source Step = 48.3221%
Source Step = 48.3665%
Source Step = 48.4109%
vernier = 0.00219727
Source Step = 48.4708%
Source Step = 48.5374%
Source Step = 48.604%
Source Step = 48.6705%
Source Step = 48.7371%
vernier = 0.0032959
Source Step = 48.8237%
Source Step = 48.9236%
Source Step = 49.0234%
Source Step = 49.1233%
Source Step = 49.2232%
vernier = 0.00494385
Source Step = 49.348%
Source Step = 49.4978%
Source Step = 49.6477%
Source Step = 49.7975%
Source Step = 49.9473%
vernier = 0.00741577
Source Step = 50.1271%
Source Step = 50.3518%
Source Step = 50.5765%
Source Step = 50.8012%
Source Step = 51.0259%
vernier = 0.0111237
Source Step = 51.2844%
Source Step = 51.6215%
Source Step = 51.9585%
Source Step = 52.2956%
Source Step = 52.6327%
vernier = 0.0166855
Source Step = 53.0035%
Source Step = 53.5091%
Source Step = 54.0147%
Source Step = 54.5203%
Source Step = 55.026%
vernier = 0.0250282
Source Step = 55.5569%
Source Step = 56.3153%
Source Step = 57.0737%
Source Step = 57.8322%
Source Step = 58.5906%
Source Step = 59.349%
vernier = 0.0375423
Source Step = 60.4867%
Source Step = 61.6243%
Source Step = 62.762%
Source Step = 63.8996%
Source Step = 65.0373%
vernier = 0.0563135
Source Step = 66.6868%
Source Step = 68.3933%
Source Step = 70.0998%
Source Step = 71.8063%
Source Step = 73.5127%
vernier = 0.0844703
Source Step = 75.9018%
Source Step = 78.4615%
Source Step = 81.0212%
Source Step = 83.5809%
Source Step = 86.1406%
vernier = 0.126705
Source Step = 89.5962%
Source Step = 93.4358%
Source Step = 97.2753%
Source stepping succeeded in finding the operating point.

Total elapsed time: 21.215 seconds.

Files loaded:
C:\Users\conor\Documents\College\Masters\Thesis\GeecPE2526\Simulation\GeecHalf-Bridge.net
C:\Users\conor\AppData\Local\LTspice\lib\cmp\standard.dio
C:\Users\conor\Documents\College\Masters\Thesis\GeecPE2526\Simulation\MOSFETS\OptiMOS6\OptiMOS6_40V_Halfbridges_LTSpice.lib
C:\Users\conor\Documents\College\Masters\Thesis\GeecPE2526\Simulation\ADuM3190\ADuM3190B.sub
C:\Users\conor\AppData\Local\LTspice\lib\sub\AD8411A.sub
C:\Users\conor\AppData\Local\LTspice\lib\sub\LTC7063.sub
C:\Users\conor\AppData\Local\LTspice\lib\sub\MAX9095.sub

e_out: INTEG(V(out)*I(R2))=0.318174722964 FROM 0.0015 TO 0.0025
e_in: INTEG(V(Vin)*I(V1))=-0.325597578047 FROM 0.0015 TO 0.0025
