LTspice 24.1.9 for Windows
Circuit: E:\Documents\Masters\Project\Simulation\LM5104.net
Start Time: Thu Nov 13 15:19:55 2025
solver = Normal
Maximum thread count: 12
tnom = 27
temp = 27
method = trap
E:\Documents\Masters\Project\Simulation\LM5104.net(21): Limiting fall time to 1.01644e-20.

V2 N003 0 PULSE(0 1 0 {1/FREQ} 0 0 {1/FREQ})
^^^^^^^^^^^^^^^^^^^^^^^^^^^^^^^^^^^^^^^^^^^^
Instance "u1:xhsd:m1": Length shorter than recommended for a level 1 MOSFET.
Instance "u1:xhsd:m2": Length shorter than recommended for a level 1 MOSFET.
Instance "u1:xlsd:m1": Length shorter than recommended for a level 1 MOSFET.
Instance "u1:xlsd:m2": Length shorter than recommended for a level 1 MOSFET.
E:\Documents\Masters\Project\Simulation\LM5104_PSPICE_TRANS\LM5104_TRANS.lib(106): Missing value, assuming 0V @ DC.

vdummy 101 rt 
^^^^^^^^^^^^^^
Direct Newton iteration for .op point succeeded.
Warning: Simulation tolerance relaxed to achieve convergence from 3.1362311810779401e-04 to 3.1362311810779499e-04 seconds.
Warning: Simulation tolerance relaxed to achieve convergence from 6.1361752209649831e-04 to 6.1361752209649928e-04 seconds.
Warning: Simulation tolerance relaxed to achieve convergence from 8.6361947012793066e-04 to 8.6361947012793163e-04 seconds.
Warning: Simulation tolerance relaxed to achieve convergence from 1.0136187491166283e-03 to 1.0136187491166383e-03 seconds.
Warning: Simulation tolerance relaxed to achieve convergence from 1.1636193229525231e-03 to 1.1636193229525331e-03 seconds.
Warning: Simulation tolerance relaxed to achieve convergence from 1.3136182280698309e-03 to 1.3136182280698409e-03 seconds.
Warning: Simulation tolerance relaxed to achieve convergence from 1.6636196296043251e-03 to 1.6636196296043351e-03 seconds.
Warning: Simulation tolerance relaxed to achieve convergence from 1.8636237252410055e-03 to 1.8636237252410155e-03 seconds.
Warning: Simulation tolerance relaxed to achieve convergence from 1.9636186422529963e-03 to 1.9636186422530063e-03 seconds.
Warning: Simulation tolerance relaxed to achieve convergence from 2.1136235182373847e-03 to 2.1136235182373946e-03 seconds.
Warning: Simulation tolerance relaxed to achieve convergence from 2.1636230413486289e-03 to 2.1636230413486389e-03 seconds.
Warning: Simulation tolerance relaxed to achieve convergence from 2.4136232348464116e-03 to 2.4136232348464215e-03 seconds.
Warning: Simulation tolerance relaxed to achieve convergence from 2.5636224436456200e-03 to 2.5636224436456300e-03 seconds.
Warning: Simulation tolerance relaxed to achieve convergence from 2.8636248961263762e-03 to 2.8636248961263861e-03 seconds.
Warning: Simulation tolerance relaxed to achieve convergence from 2.9136173084250705e-03 to 2.9136173084250805e-03 seconds.
Warning: Simulation tolerance relaxed to achieve convergence from 2.9636244972266611e-03 to 2.9636244972266711e-03 seconds.
Warning: Simulation tolerance relaxed to achieve convergence from 3.2136247288757198e-03 to 3.2136247288757297e-03 seconds.
Warning: Simulation tolerance relaxed to achieve convergence from 3.2636167939078474e-03 to 3.2636167939078574e-03 seconds.
Warning: Simulation tolerance relaxed to achieve convergence from 3.3636197641012029e-03 to 3.3636197641012128e-03 seconds.
Warning: Simulation tolerance relaxed to achieve convergence from 3.7136173315335504e-03 to 3.7136173315335604e-03 seconds.
Warning: Simulation tolerance relaxed to achieve convergence from 3.7636246504995446e-03 to 3.7636246504995545e-03 seconds.
Warning: Simulation tolerance relaxed to achieve convergence from 4.0636230950574581e-03 to 4.0636230950574686e-03 seconds.
Warning: Simulation tolerance relaxed to achieve convergence from 4.2636191938106131e-03 to 4.2636191938106235e-03 seconds.
Warning: Simulation tolerance relaxed to achieve convergence from 4.3136176107291266e-03 to 4.3136176107291370e-03 seconds.
Warning: Simulation tolerance relaxed to achieve convergence from 4.6136257612000289e-03 to 4.6136257612000393e-03 seconds.
Warning: Simulation tolerance relaxed to achieve convergence from 4.7636181892082080e-03 to 4.7636181892082184e-03 seconds.
Warning: Simulation tolerance relaxed to achieve convergence from 5.5136183494257172e-03 to 5.5136183494257276e-03 seconds.
Warning: Simulation tolerance relaxed to achieve convergence from 5.6136191085890234e-03 to 5.6136191085890338e-03 seconds.
Warning: Simulation tolerance relaxed to achieve convergence from 5.9136249083675948e-03 to 5.9136249083676052e-03 seconds.
Warning: Simulation tolerance relaxed to achieve convergence from 6.1636187426936904e-03 to 6.1636187426937009e-03 seconds.
Warning: Simulation tolerance relaxed to achieve convergence from 6.3636182379701841e-03 to 6.3636182379701945e-03 seconds.
Warning: Simulation tolerance relaxed to achieve convergence from 7.6636257890471569e-03 to 7.6636257890471673e-03 seconds.
Warning: Simulation tolerance relaxed to achieve convergence from 7.7136258115218280e-03 to 7.7136258115218384e-03 seconds.
Warning: Simulation tolerance relaxed to achieve convergence from 7.9636250198068127e-03 to 7.9636250198068231e-03 seconds.
Warning: Simulation tolerance relaxed to achieve convergence from 8.1636238085569020e-03 to 8.1636238085569125e-03 seconds.
Warning: Simulation tolerance relaxed to achieve convergence from 8.2136188715610618e-03 to 8.2136188715610722e-03 seconds.
Warning: Simulation tolerance relaxed to achieve convergence from 8.3636255195359711e-03 to 8.3636255195359815e-03 seconds.
Warning: Simulation tolerance relaxed to achieve convergence from 8.6136196096121484e-03 to 8.6136196096121588e-03 seconds.
Warning: Simulation tolerance relaxed to achieve convergence from 9.0136250063452966e-03 to 9.0136250063453070e-03 seconds.
Warning: Simulation tolerance relaxed to achieve convergence from 9.6136233706999117e-03 to 9.6136233706999221e-03 seconds.
Warning: Simulation tolerance relaxed to achieve convergence from 9.6636229625059519e-03 to 9.6636229625059623e-03 seconds.
Warning: Simulation tolerance relaxed to achieve convergence from 9.8136179813018854e-03 to 9.8136179813018958e-03 seconds.
Warning: Simulation tolerance relaxed to achieve convergence from 9.9136233143114136e-03 to 9.9136233143114240e-03 seconds.
Total elapsed time: 37.262 seconds.

Files loaded:
E:\Documents\Masters\Project\Simulation\LM5104.net
C:\Users\conor\AppData\Local\LTspice\lib\cmp\standard.dio
C:\Users\conor\AppData\Local\LTspice\lib\sub\Contrib\Nexperia\nmos\PSMN1R2-30YLD.lib
E:\Documents\Masters\Project\Simulation\LM5104_PSPICE_TRANS\LM5104_TRANS.lib

