LTspice 24.1.9 for Windows
Circuit: E:\Documents\Masters\Project\Simulation\LM5104.net
Start Time: Wed Oct 15 23:27:08 2025
solver = Normal
Maximum thread count: 12
tnom = 27
temp = 27
method = trap
E:\Documents\Masters\Project\Simulation\LM5104.net(21): Limiting fall time to 1.01644e-20.

V2 N003 0 PULSE(0 1 0 {1/FREQ} 0 0 {1/FREQ})
^^^^^^^^^^^^^^^^^^^^^^^^^^^^^^^^^^^^^^^^^^^^
Instance "u1:xhsd:m1": Length shorter than recommended for a level 1 MOSFET.
Instance "u1:xhsd:m2": Length shorter than recommended for a level 1 MOSFET.
Instance "u1:xlsd:m1": Length shorter than recommended for a level 1 MOSFET.
Instance "u1:xlsd:m2": Length shorter than recommended for a level 1 MOSFET.
E:\Documents\Masters\Project\Simulation\LM5104_PSPICE_TRANS\LM5104_TRANS.lib(106): Missing value, assuming 0V @ DC.

vdummy 101 rt 
^^^^^^^^^^^^^^
Direct Newton iteration for .op point succeeded.
Warning: Simulation tolerance relaxed to achieve convergence from 1.2636975307769008e-03 to 1.2636975307769107e-03 seconds.
Warning: Simulation tolerance relaxed to achieve convergence from 2.2637021285470118e-03 to 2.2637021285470218e-03 seconds.
Warning: Simulation tolerance relaxed to achieve convergence from 2.6637904517454632e-03 to 2.6637904517454731e-03 seconds.
Warning: Simulation tolerance relaxed to achieve convergence from 3.2137148914489024e-03 to 3.2137148914489124e-03 seconds.
Warning: Simulation tolerance relaxed to achieve convergence from 4.0638640945607580e-03 to 4.0638640945607684e-03 seconds.
Warning: Simulation tolerance relaxed to achieve convergence from 4.4138072522346026e-03 to 4.4138072522346130e-03 seconds.
Warning: Simulation tolerance relaxed to achieve convergence from 4.9137993971137940e-03 to 4.9137993971138045e-03 seconds.
Warning: Simulation tolerance relaxed to achieve convergence from 5.1635951839807135e-03 to 5.1635951839807239e-03 seconds.
Warning: Simulation tolerance relaxed to achieve convergence from 5.2638087679385652e-03 to 5.2638087679385756e-03 seconds.
Warning: Simulation tolerance relaxed to achieve convergence from 5.4137205062700158e-03 to 5.4137205062700262e-03 seconds.
Warning: Simulation tolerance relaxed to achieve convergence from 6.1136527107294265e-03 to 6.1136527107294369e-03 seconds.
Warning: Simulation tolerance relaxed to achieve convergence from 6.2138021832137905e-03 to 6.2138021832138009e-03 seconds.
Warning: Simulation tolerance relaxed to achieve convergence from 6.9137721934032486e-03 to 6.9137721934032590e-03 seconds.
Warning: Simulation tolerance relaxed to achieve convergence from 7.3637981840803017e-03 to 7.3637981840803121e-03 seconds.
Warning: Simulation tolerance relaxed to achieve convergence from 7.5136043127283642e-03 to 7.5136043127283746e-03 seconds.
Warning: Simulation tolerance relaxed to achieve convergence from 7.6137183922069390e-03 to 7.6137183922069494e-03 seconds.
Warning: Simulation tolerance relaxed to achieve convergence from 8.1135439073554035e-03 to 8.1135439073554139e-03 seconds.
Warning: Simulation tolerance relaxed to achieve convergence from 8.5638071287862574e-03 to 8.5638071287862678e-03 seconds.
Warning: Simulation tolerance relaxed to achieve convergence from 9.0136846538590634e-03 to 9.0136846538590738e-03 seconds.
Warning: Simulation tolerance relaxed to achieve convergence from 9.8638007985345430e-03 to 9.8638007985345534e-03 seconds.
Warning: Simulation tolerance relaxed to achieve convergence from 1.0163773620932362e-02 to 1.0163773620932463e-02 seconds.
Warning: Simulation tolerance relaxed to achieve convergence from 1.0663732590297200e-02 to 1.0663732590297301e-02 seconds.
Warning: Simulation tolerance relaxed to achieve convergence from 1.0863807531337227e-02 to 1.0863807531337328e-02 seconds.
Warning: Simulation tolerance relaxed to achieve convergence from 1.2213840070953011e-02 to 1.2213840070953112e-02 seconds.
Warning: Simulation tolerance relaxed to achieve convergence from 1.2763880052244766e-02 to 1.2763880052244866e-02 seconds.
Warning: Simulation tolerance relaxed to achieve convergence from 1.2863715244321346e-02 to 1.2863715244321446e-02 seconds.
Warning: Simulation tolerance relaxed to achieve convergence from 1.3013726587419380e-02 to 1.3013726587419481e-02 seconds.
Warning: Simulation tolerance relaxed to achieve convergence from 1.3663797891509817e-02 to 1.3663797891509918e-02 seconds.
Warning: Simulation tolerance relaxed to achieve convergence from 1.3813837391704682e-02 to 1.3813837391704782e-02 seconds.
Warning: Simulation tolerance relaxed to achieve convergence from 1.4163786629429688e-02 to 1.4163786629429789e-02 seconds.
Warning: Simulation tolerance relaxed to achieve convergence from 1.4213719079298514e-02 to 1.4213719079298614e-02 seconds.
Warning: Simulation tolerance relaxed to achieve convergence from 1.4663915986902835e-02 to 1.4663915986902936e-02 seconds.
Warning: Simulation tolerance relaxed to achieve convergence from 1.4963783548726472e-02 to 1.4963783548726572e-02 seconds.
Warning: Simulation tolerance relaxed to achieve convergence from 1.5063736881003684e-02 to 1.5063736881003785e-02 seconds.
Warning: Simulation tolerance relaxed to achieve convergence from 1.5613695544055083e-02 to 1.5613695544055183e-02 seconds.
Warning: Simulation tolerance relaxed to achieve convergence from 1.6263752064461928e-02 to 1.6263752064462029e-02 seconds.
Warning: Simulation tolerance relaxed to achieve convergence from 1.6463691374947419e-02 to 1.6463691374947520e-02 seconds.
Warning: Simulation tolerance relaxed to achieve convergence from 1.6613696811661478e-02 to 1.6613696811661579e-02 seconds.
Warning: Simulation tolerance relaxed to achieve convergence from 1.7213721887233926e-02 to 1.7213721887234027e-02 seconds.
Warning: Simulation tolerance relaxed to achieve convergence from 1.8113826013214717e-02 to 1.8113826013214818e-02 seconds.
Warning: Simulation tolerance relaxed to achieve convergence from 1.8263792584904182e-02 to 1.8263792584904282e-02 seconds.
Warning: Simulation tolerance relaxed to achieve convergence from 1.8363765086098955e-02 to 1.8363765086099056e-02 seconds.
Warning: Simulation tolerance relaxed to achieve convergence from 1.8913760405969676e-02 to 1.8913760405969777e-02 seconds.
Warning: Simulation tolerance relaxed to achieve convergence from 1.9763886606163648e-02 to 1.9763886606163749e-02 seconds.
Warning: Simulation tolerance relaxed to achieve convergence from 1.9863825085418167e-02 to 1.9863825085418268e-02 seconds.
Warning: Simulation tolerance relaxed to achieve convergence from 1.9963702118473158e-02 to 1.9963702118473259e-02 seconds.
Warning: Simulation tolerance relaxed to achieve convergence from 2.0763700135634156e-02 to 2.0763700135634257e-02 seconds.
Warning: Simulation tolerance relaxed to achieve convergence from 2.1513794454039743e-02 to 2.1513794454039843e-02 seconds.
Warning: Simulation tolerance relaxed to achieve convergence from 2.1713750650287536e-02 to 2.1713750650287637e-02 seconds.
Warning: Simulation tolerance relaxed to achieve convergence from 2.2313752592008830e-02 to 2.2313752592008931e-02 seconds.
Warning: Simulation tolerance relaxed to achieve convergence from 2.2913757565539389e-02 to 2.2913757565539490e-02 seconds.
Warning: Simulation tolerance relaxed to achieve convergence from 2.3213776680238080e-02 to 2.3213776680238180e-02 seconds.
Warning: Simulation tolerance relaxed to achieve convergence from 2.3363833687897531e-02 to 2.3363833687897632e-02 seconds.
Warning: Simulation tolerance relaxed to achieve convergence from 2.3963792342562615e-02 to 2.3963792342562715e-02 seconds.
Warning: Simulation tolerance relaxed to achieve convergence from 2.4363817143091618e-02 to 2.4363817143091718e-02 seconds.
Warning: Simulation tolerance relaxed to achieve convergence from 2.4563774559300144e-02 to 2.4563774559300245e-02 seconds.
Warning: Simulation tolerance relaxed to achieve convergence from 2.4613790350229911e-02 to 2.4613790350230012e-02 seconds.
Warning: Simulation tolerance relaxed to achieve convergence from 2.4963731541147522e-02 to 2.4963731541147623e-02 seconds.
Warning: Simulation tolerance relaxed to achieve convergence from 2.5213611711949101e-02 to 2.5213611711949201e-02 seconds.
Warning: Simulation tolerance relaxed to achieve convergence from 2.5413732593679079e-02 to 2.5413732593679180e-02 seconds.
Warning: Simulation tolerance relaxed to achieve convergence from 2.5563754230308496e-02 to 2.5563754230308596e-02 seconds.
Warning: Simulation tolerance relaxed to achieve convergence from 2.6413900273910555e-02 to 2.6413900273910655e-02 seconds.
Warning: Simulation tolerance relaxed to achieve convergence from 2.6663808374214674e-02 to 2.6663808374214774e-02 seconds.
Warning: Simulation tolerance relaxed to achieve convergence from 2.7113812558569698e-02 to 2.7113812558569799e-02 seconds.
Warning: Simulation tolerance relaxed to achieve convergence from 2.8263819531846951e-02 to 2.8263819531847052e-02 seconds.
Warning: Simulation tolerance relaxed to achieve convergence from 2.8363698678124039e-02 to 2.8363698678124140e-02 seconds.
Warning: Simulation tolerance relaxed to achieve convergence from 2.8463774624120974e-02 to 2.8463774624121075e-02 seconds.
Warning: Simulation tolerance relaxed to achieve convergence from 2.8713618287136974e-02 to 2.8713618287137074e-02 seconds.
Warning: Simulation tolerance relaxed to achieve convergence from 2.9513655372896366e-02 to 2.9513655372896467e-02 seconds.
Warning: Simulation tolerance relaxed to achieve convergence from 2.9913641129444890e-02 to 2.9913641129444991e-02 seconds.
Warning: Simulation tolerance relaxed to achieve convergence from 2.9963756457892565e-02 to 2.9963756457892666e-02 seconds.
Warning: Simulation tolerance relaxed to achieve convergence from 3.0013704031346775e-02 to 3.0013704031346875e-02 seconds.
Warning: Simulation tolerance relaxed to achieve convergence from 3.0113908677759808e-02 to 3.0113908677759909e-02 seconds.
Warning: Simulation tolerance relaxed to achieve convergence from 3.0413834633139208e-02 to 3.0413834633139309e-02 seconds.
Warning: Simulation tolerance relaxed to achieve convergence from 3.0463790501107320e-02 to 3.0463790501107420e-02 seconds.
Warning: Simulation tolerance relaxed to achieve convergence from 3.1663799067091838e-02 to 3.1663799067091936e-02 seconds.
Warning: Simulation tolerance relaxed to achieve convergence from 3.1913821190187687e-02 to 3.1913821190187784e-02 seconds.
Warning: Simulation tolerance relaxed to achieve convergence from 3.2063716346928769e-02 to 3.2063716346928867e-02 seconds.
Warning: Simulation tolerance relaxed to achieve convergence from 3.2163754539789702e-02 to 3.2163754539789799e-02 seconds.
Warning: Simulation tolerance relaxed to achieve convergence from 3.2663870031804931e-02 to 3.2663870031805028e-02 seconds.
Warning: Simulation tolerance relaxed to achieve convergence from 3.2913664798925123e-02 to 3.2913664798925220e-02 seconds.
Warning: Simulation tolerance relaxed to achieve convergence from 3.2963753222256399e-02 to 3.2963753222256496e-02 seconds.
Warning: Simulation tolerance relaxed to achieve convergence from 3.3363750085081426e-02 to 3.3363750085081523e-02 seconds.
Warning: Simulation tolerance relaxed to achieve convergence from 3.3813853553832193e-02 to 3.3813853553832290e-02 seconds.
Warning: Simulation tolerance relaxed to achieve convergence from 3.4263804508356699e-02 to 3.4263804508356796e-02 seconds.
Warning: Simulation tolerance relaxed to achieve convergence from 3.4663608811274220e-02 to 3.4663608811274317e-02 seconds.
Warning: Simulation tolerance relaxed to achieve convergence from 3.6763760135766432e-02 to 3.6763760135766529e-02 seconds.
Warning: Simulation tolerance relaxed to achieve convergence from 3.6813666705911435e-02 to 3.6813666705911532e-02 seconds.
Warning: Simulation tolerance relaxed to achieve convergence from 3.6913802386559391e-02 to 3.6913802386559488e-02 seconds.
Warning: Simulation tolerance relaxed to achieve convergence from 3.8363721859997632e-02 to 3.8363721859997729e-02 seconds.
Warning: Simulation tolerance relaxed to achieve convergence from 3.8963697368384786e-02 to 3.8963697368384884e-02 seconds.
Warning: Simulation tolerance relaxed to achieve convergence from 3.9963849547436488e-02 to 3.9963849547436585e-02 seconds.
Warning: Simulation tolerance relaxed to achieve convergence from 4.0163676170366765e-02 to 4.0163676170366862e-02 seconds.
Warning: Simulation tolerance relaxed to achieve convergence from 4.0563609132878910e-02 to 4.0563609132879007e-02 seconds.
Warning: Simulation tolerance relaxed to achieve convergence from 4.0913703593575441e-02 to 4.0913703593575539e-02 seconds.
Warning: Simulation tolerance relaxed to achieve convergence from 4.1263826262005011e-02 to 4.1263826262005109e-02 seconds.
Warning: Simulation tolerance relaxed to achieve convergence from 4.1413790477365736e-02 to 4.1413790477365833e-02 seconds.
Warning: Simulation tolerance relaxed to achieve convergence from 4.1863588555827967e-02 to 4.1863588555828064e-02 seconds.
Warning: Simulation tolerance relaxed to achieve convergence from 4.1963801716703067e-02 to 4.1963801716703164e-02 seconds.
Warning: Simulation tolerance relaxed to achieve convergence from 4.2263750487489274e-02 to 4.2263750487489371e-02 seconds.
Warning: Simulation tolerance relaxed to achieve convergence from 4.2814032775053294e-02 to 4.2814032775053391e-02 seconds.
Warning: Simulation tolerance relaxed to achieve convergence from 4.2814032775053391e-02 to 4.2814032775053489e-02 seconds.
Warning: Simulation tolerance relaxed to achieve convergence from 4.2814032775053489e-02 to 4.2814032775053586e-02 seconds.
Warning: Simulation tolerance relaxed to achieve convergence from 4.2814032775053586e-02 to 4.2814032775053683e-02 seconds.
Warning: Simulation tolerance relaxed to achieve convergence from 4.2814032775053683e-02 to 4.2814032775053780e-02 seconds.
Warning: Simulation tolerance relaxed to achieve convergence from 4.2814032775053877e-02 to 4.2814032775053974e-02 seconds.
Warning: Simulation tolerance relaxed to achieve convergence from 4.2814032775053974e-02 to 4.2814032775054071e-02 seconds.
Warning: Simulation tolerance relaxed to achieve convergence from 4.2814032775054071e-02 to 4.2814032775054169e-02 seconds.
Warning: Simulation tolerance relaxed to achieve convergence from 4.2814032775054169e-02 to 4.2814032775054266e-02 seconds.
Warning: Simulation tolerance relaxed to achieve convergence from 4.2814032775054266e-02 to 4.2814032775054363e-02 seconds.
Warning: Simulation tolerance relaxed to achieve convergence from 4.2814032775054363e-02 to 4.2814032775054460e-02 seconds.
Warning: Simulation tolerance relaxed to achieve convergence from 4.2814032775054460e-02 to 4.2814032775054557e-02 seconds.
Warning: Simulation tolerance relaxed to achieve convergence from 4.2814032775054557e-02 to 4.2814032775054654e-02 seconds.
Warning: Simulation tolerance relaxed to achieve convergence from 4.2814032775054751e-02 to 4.2814032775054849e-02 seconds.
Warning: Simulation tolerance relaxed to achieve convergence from 4.2814032775054849e-02 to 4.2814032775054946e-02 seconds.
Warning: Simulation tolerance relaxed to achieve convergence from 4.2814032775054946e-02 to 4.2814032775055043e-02 seconds.
Warning: Simulation tolerance relaxed to achieve convergence from 4.2814032775055043e-02 to 4.2814032775055140e-02 seconds.
Warning: Simulation tolerance relaxed to achieve convergence from 4.2814032775055237e-02 to 4.2814032775055334e-02 seconds.
Warning: Simulation tolerance relaxed to achieve convergence from 4.2814032775055334e-02 to 4.2814032775055431e-02 seconds.
Warning: Simulation tolerance relaxed to achieve convergence from 4.2814032775055431e-02 to 4.2814032775055529e-02 seconds.
Warning: Simulation tolerance relaxed to achieve convergence from 4.2814032775055529e-02 to 4.2814032775055626e-02 seconds.
Warning: Simulation tolerance relaxed to achieve convergence from 4.2814032775055626e-02 to 4.2814032775055723e-02 seconds.
Warning: Simulation tolerance relaxed to achieve convergence from 4.2814032775055723e-02 to 4.2814032775055820e-02 seconds.
Warning: Simulation tolerance relaxed to achieve convergence from 4.2814032775056118e-02 to 4.2814032775056216e-02 seconds.
Warning: Simulation tolerance relaxed to achieve convergence from 4.2814032775056216e-02 to 4.2814032775056313e-02 seconds.
Warning: Simulation tolerance relaxed to achieve convergence from 4.2814032775056313e-02 to 4.2814032775056410e-02 seconds.
Warning: Simulation tolerance relaxed to achieve convergence from 4.2814032775056410e-02 to 4.2814032775056507e-02 seconds.
Warning: Simulation tolerance relaxed to achieve convergence from 4.2814032775056604e-02 to 4.2814032775056701e-02 seconds.
Warning: Simulation tolerance relaxed to achieve convergence from 4.2814032775056701e-02 to 4.2814032775056798e-02 seconds.
Warning: Simulation tolerance relaxed to achieve convergence from 4.2814032775056896e-02 to 4.2814032775056993e-02 seconds.
Warning: Simulation tolerance relaxed to achieve convergence from 4.2814032775056993e-02 to 4.2814032775057090e-02 seconds.
Warning: Simulation tolerance relaxed to achieve convergence from 4.2814032775057291e-02 to 4.2814032775057388e-02 seconds.
Warning: Simulation tolerance relaxed to achieve convergence from 4.2814032775057388e-02 to 4.2814032775057485e-02 seconds.
Warning: Simulation tolerance relaxed to achieve convergence from 4.2814032775057978e-02 to 4.2814032775058075e-02 seconds.
Warning: Simulation tolerance relaxed to achieve convergence from 4.2814032775058172e-02 to 4.2814032775058269e-02 seconds.
Warning: Simulation tolerance relaxed to achieve convergence from 4.2814032775058471e-02 to 4.2814032775058568e-02 seconds.
Warning: Simulation tolerance relaxed to achieve convergence from 4.2814032775058568e-02 to 4.2814032775058665e-02 seconds.
Warning: Simulation tolerance relaxed to achieve convergence from 4.2814032775058665e-02 to 4.2814032775058762e-02 seconds.
Warning: Simulation tolerance relaxed to achieve convergence from 4.2814032775058762e-02 to 4.2814032775058859e-02 seconds.
Warning: Simulation tolerance relaxed to achieve convergence from 4.2814032775058859e-02 to 4.2814032775058956e-02 seconds.
Warning: Simulation tolerance relaxed to achieve convergence from 4.2814032775058956e-02 to 4.2814032775059054e-02 seconds.
Warning: Simulation tolerance relaxed to achieve convergence from 4.2814032775059054e-02 to 4.2814032775059151e-02 seconds.
Warning: Simulation tolerance relaxed to achieve convergence from 4.2814032775059248e-02 to 4.2814032775059345e-02 seconds.
Warning: Simulation tolerance relaxed to achieve convergence from 4.2814032775059345e-02 to 4.2814032775059442e-02 seconds.
Warning: Simulation tolerance relaxed to achieve convergence from 4.2814032775059442e-02 to 4.2814032775059539e-02 seconds.
Warning: Simulation tolerance relaxed to achieve convergence from 4.2814032775059740e-02 to 4.2814032775059838e-02 seconds.
Warning: Simulation tolerance relaxed to achieve convergence from 4.2814032775059935e-02 to 4.2814032775060032e-02 seconds.
Warning: Simulation tolerance relaxed to achieve convergence from 4.2814032775060032e-02 to 4.2814032775060129e-02 seconds.
Warning: Simulation tolerance relaxed to achieve convergence from 4.2814032775060226e-02 to 4.2814032775060323e-02 seconds.
Warning: Simulation tolerance relaxed to achieve convergence from 4.2814032775060622e-02 to 4.2814032775060719e-02 seconds.
Warning: Simulation tolerance relaxed to achieve convergence from 4.2814032775060920e-02 to 4.2814032775061017e-02 seconds.
Warning: Simulation tolerance relaxed to achieve convergence from 4.2814032775061017e-02 to 4.2814032775061114e-02 seconds.
Warning: Simulation tolerance relaxed to achieve convergence from 4.2814032775061114e-02 to 4.2814032775061212e-02 seconds.
Warning: Simulation tolerance relaxed to achieve convergence from 4.2814032775061212e-02 to 4.2814032775061309e-02 seconds.
Warning: Simulation tolerance relaxed to achieve convergence from 4.2814032775061309e-02 to 4.2814032775061406e-02 seconds.
Warning: Simulation tolerance relaxed to achieve convergence from 4.2814032775061406e-02 to 4.2814032775061503e-02 seconds.
Warning: Simulation tolerance relaxed to achieve convergence from 4.2814032775061600e-02 to 4.2814032775061697e-02 seconds.
Warning: Simulation tolerance relaxed to achieve convergence from 4.2814032775061898e-02 to 4.2814032775061996e-02 seconds.
Warning: Simulation tolerance relaxed to achieve convergence from 4.2814032775062190e-02 to 4.2814032775062287e-02 seconds.
Warning: Simulation tolerance relaxed to achieve convergence from 4.2814032775062488e-02 to 4.2814032775062585e-02 seconds.
Warning: Simulation tolerance relaxed to achieve convergence from 4.2814032775062683e-02 to 4.2814032775062780e-02 seconds.
Warning: Simulation tolerance relaxed to achieve convergence from 4.2814032775062780e-02 to 4.2814032775062877e-02 seconds.
Warning: Simulation tolerance relaxed to achieve convergence from 4.2814032775063078e-02 to 4.2814032775063175e-02 seconds.
Warning: Simulation tolerance relaxed to achieve convergence from 4.2814032775063175e-02 to 4.2814032775063272e-02 seconds.
Warning: Simulation tolerance relaxed to achieve convergence from 4.2814032775063370e-02 to 4.2814032775063467e-02 seconds.
Warning: Simulation tolerance relaxed to achieve convergence from 4.2814032775063564e-02 to 4.2814032775063661e-02 seconds.
Warning: Simulation tolerance relaxed to achieve convergence from 4.2814032775063661e-02 to 4.2814032775063758e-02 seconds.
Warning: Simulation tolerance relaxed to achieve convergence from 4.2814032775064056e-02 to 4.2814032775064154e-02 seconds.
Warning: Simulation tolerance relaxed to achieve convergence from 4.2814032775064154e-02 to 4.2814032775064251e-02 seconds.
Warning: Simulation tolerance relaxed to achieve convergence from 4.2814032775064251e-02 to 4.2814032775064348e-02 seconds.
Warning: Simulation tolerance relaxed to achieve convergence from 4.2814032775064348e-02 to 4.2814032775064445e-02 seconds.
Warning: Simulation tolerance relaxed to achieve convergence from 4.2814032775064445e-02 to 4.2814032775064542e-02 seconds.
Warning: Simulation tolerance relaxed to achieve convergence from 4.2814032775064542e-02 to 4.2814032775064639e-02 seconds.
Warning: Simulation tolerance relaxed to achieve convergence from 4.2814032775064736e-02 to 4.2814032775064834e-02 seconds.
Warning: Simulation tolerance relaxed to achieve convergence from 4.2814032775064834e-02 to 4.2814032775064931e-02 seconds.
Warning: Simulation tolerance relaxed to achieve convergence from 4.2814032775065132e-02 to 4.2814032775065229e-02 seconds.
Warning: Simulation tolerance relaxed to achieve convergence from 4.2814032775065229e-02 to 4.2814032775065326e-02 seconds.
Warning: Simulation tolerance relaxed to achieve convergence from 4.2814032775065326e-02 to 4.2814032775065423e-02 seconds.
Warning: Simulation tolerance relaxed to achieve convergence from 4.2814032775066027e-02 to 4.2814032775066124e-02 seconds.
Warning: Simulation tolerance relaxed to achieve convergence from 4.2814032775066124e-02 to 4.2814032775066221e-02 seconds.
Warning: Simulation tolerance relaxed to achieve convergence from 4.2814032775066221e-02 to 4.2814032775066319e-02 seconds.
Warning: Simulation tolerance relaxed to achieve convergence from 4.2814032775066319e-02 to 4.2814032775066416e-02 seconds.
Warning: Simulation tolerance relaxed to achieve convergence from 4.2814032775066416e-02 to 4.2814032775066513e-02 seconds.
Warning: Simulation tolerance relaxed to achieve convergence from 4.2814032775066610e-02 to 4.2814032775066707e-02 seconds.
Warning: Simulation tolerance relaxed to achieve convergence from 4.2814032775066707e-02 to 4.2814032775066804e-02 seconds.
Warning: Simulation tolerance relaxed to achieve convergence from 4.2814032775066804e-02 to 4.2814032775066901e-02 seconds.
Warning: Simulation tolerance relaxed to achieve convergence from 4.2814032775066901e-02 to 4.2814032775066999e-02 seconds.
Warning: Simulation tolerance relaxed to achieve convergence from 4.2814032775067096e-02 to 4.2814032775067193e-02 seconds.
Warning: Simulation tolerance relaxed to achieve convergence from 4.2814032775067193e-02 to 4.2814032775067290e-02 seconds.
Warning: Simulation tolerance relaxed to achieve convergence from 4.2814032775067484e-02 to 4.2814032775067581e-02 seconds.
Warning: Simulation tolerance relaxed to achieve convergence from 4.2814032775067581e-02 to 4.2814032775067679e-02 seconds.
Warning: Simulation tolerance relaxed to achieve convergence from 4.2814032775067679e-02 to 4.2814032775067776e-02 seconds.
Warning: Simulation tolerance relaxed to achieve convergence from 4.2814032775067873e-02 to 4.2814032775067970e-02 seconds.
Warning: Simulation tolerance relaxed to achieve convergence from 4.2814032775067970e-02 to 4.2814032775068067e-02 seconds.
Warning: Simulation tolerance relaxed to achieve convergence from 4.2814032775068463e-02 to 4.2814032775068560e-02 seconds.
Warning: Simulation tolerance relaxed to achieve convergence from 4.2814032775068657e-02 to 4.2814032775068754e-02 seconds.
Warning: Simulation tolerance relaxed to achieve convergence from 4.2814032775068754e-02 to 4.2814032775068851e-02 seconds.
Warning: Simulation tolerance relaxed to achieve convergence from 4.2814032775069052e-02 to 4.2814032775069150e-02 seconds.
Warning: Simulation tolerance relaxed to achieve convergence from 4.2814032775069351e-02 to 4.2814032775069448e-02 seconds.
Warning: Simulation tolerance relaxed to achieve convergence from 4.2814032775069448e-02 to 4.2814032775069545e-02 seconds.
Warning: Simulation tolerance relaxed to achieve convergence from 4.2814032775069545e-02 to 4.2814032775069642e-02 seconds.
Warning: Simulation tolerance relaxed to achieve convergence from 4.2814032775069642e-02 to 4.2814032775069739e-02 seconds.
Warning: Simulation tolerance relaxed to achieve convergence from 4.2814032775069739e-02 to 4.2814032775069837e-02 seconds.
Warning: Simulation tolerance relaxed to achieve convergence from 4.2814032775069837e-02 to 4.2814032775069934e-02 seconds.
Warning: Simulation tolerance relaxed to achieve convergence from 4.2814032775070031e-02 to 4.2814032775070128e-02 seconds.
Warning: Simulation tolerance relaxed to achieve convergence from 4.2814032775070524e-02 to 4.2814032775070621e-02 seconds.
Warning: Simulation tolerance relaxed to achieve convergence from 4.2814032775070621e-02 to 4.2814032775070718e-02 seconds.
Warning: Simulation tolerance relaxed to achieve convergence from 4.2814032775071113e-02 to 4.2814032775071210e-02 seconds.
Warning: Simulation tolerance relaxed to achieve convergence from 4.2814032775071412e-02 to 4.2814032775071509e-02 seconds.
Warning: Simulation tolerance relaxed to achieve convergence from 4.2814032775071710e-02 to 4.2814032775071807e-02 seconds.
Warning: Simulation tolerance relaxed to achieve convergence from 4.2814032775071807e-02 to 4.2814032775071904e-02 seconds.
Warning: Simulation tolerance relaxed to achieve convergence from 4.2814032775071904e-02 to 4.2814032775072002e-02 seconds.
Warning: Simulation tolerance relaxed to achieve convergence from 4.2814032775072002e-02 to 4.2814032775072099e-02 seconds.
Warning: Simulation tolerance relaxed to achieve convergence from 4.2814032775072099e-02 to 4.2814032775072196e-02 seconds.
Warning: Simulation tolerance relaxed to achieve convergence from 4.2814032775072196e-02 to 4.2814032775072293e-02 seconds.
Warning: Simulation tolerance relaxed to achieve convergence from 4.2814032775072293e-02 to 4.2814032775072390e-02 seconds.
Warning: Simulation tolerance relaxed to achieve convergence from 4.2814032775072390e-02 to 4.2814032775072487e-02 seconds.
Warning: Simulation tolerance relaxed to achieve convergence from 4.2814032775072688e-02 to 4.2814032775072786e-02 seconds.
Warning: Simulation tolerance relaxed to achieve convergence from 4.2814032775072786e-02 to 4.2814032775072883e-02 seconds.
Warning: Simulation tolerance relaxed to achieve convergence from 4.2814032775072980e-02 to 4.2814032775073077e-02 seconds.
Warning: Simulation tolerance relaxed to achieve convergence from 4.2814032775073077e-02 to 4.2814032775073174e-02 seconds.
Warning: Simulation tolerance relaxed to achieve convergence from 4.2814032775073174e-02 to 4.2814032775073271e-02 seconds.
Warning: Simulation tolerance relaxed to achieve convergence from 4.2814032775073271e-02 to 4.2814032775073368e-02 seconds.
Warning: Simulation tolerance relaxed to achieve convergence from 4.2814032775073368e-02 to 4.2814032775073466e-02 seconds.
Warning: Simulation tolerance relaxed to achieve convergence from 4.2814032775073466e-02 to 4.2814032775073563e-02 seconds.
Warning: Simulation tolerance relaxed to achieve convergence from 4.2814032775073563e-02 to 4.2814032775073660e-02 seconds.
Warning: Simulation tolerance relaxed to achieve convergence from 4.2814032775073660e-02 to 4.2814032775073757e-02 seconds.
Warning: Simulation tolerance relaxed to achieve convergence from 4.2814032775073757e-02 to 4.2814032775073854e-02 seconds.
Warning: Simulation tolerance relaxed to achieve convergence from 4.2814032775073854e-02 to 4.2814032775073951e-02 seconds.
Warning: Simulation tolerance relaxed to achieve convergence from 4.2814032775073951e-02 to 4.2814032775074048e-02 seconds.
Warning: Simulation tolerance relaxed to achieve convergence from 4.2814032775074048e-02 to 4.2814032775074146e-02 seconds.
Warning: Simulation tolerance relaxed to achieve convergence from 4.2814032775074146e-02 to 4.2814032775074243e-02 seconds.
Warning: Simulation tolerance relaxed to achieve convergence from 4.2814032775074243e-02 to 4.2814032775074340e-02 seconds.
Warning: Simulation tolerance relaxed to achieve convergence from 4.2814032775074541e-02 to 4.2814032775074638e-02 seconds.
Warning: Simulation tolerance relaxed to achieve convergence from 4.2814032775074638e-02 to 4.2814032775074735e-02 seconds.
Warning: Simulation tolerance relaxed to achieve convergence from 4.2814032775074735e-02 to 4.2814032775074833e-02 seconds.
Warning: Simulation tolerance relaxed to achieve convergence from 4.2814032775074930e-02 to 4.2814032775075027e-02 seconds.
Warning: Simulation tolerance relaxed to achieve convergence from 4.2814032775075228e-02 to 4.2814032775075325e-02 seconds.
Warning: Simulation tolerance relaxed to achieve convergence from 4.2814032775075325e-02 to 4.2814032775075422e-02 seconds.
Warning: Simulation tolerance relaxed to achieve convergence from 4.2814032775075422e-02 to 4.2814032775075520e-02 seconds.
Warning: Simulation tolerance relaxed to achieve convergence from 4.2814032775075617e-02 to 4.2814032775075714e-02 seconds.
Warning: Simulation tolerance relaxed to achieve convergence from 4.2814032775075714e-02 to 4.2814032775075811e-02 seconds.
Warning: Simulation tolerance relaxed to achieve convergence from 4.2814032775075811e-02 to 4.2814032775075908e-02 seconds.
Warning: Simulation tolerance relaxed to achieve convergence from 4.2814032775076109e-02 to 4.2814032775076206e-02 seconds.
Warning: Simulation tolerance relaxed to achieve convergence from 4.2814032775076206e-02 to 4.2814032775076304e-02 seconds.
Warning: Simulation tolerance relaxed to achieve convergence from 4.2814032775076304e-02 to 4.2814032775076401e-02 seconds.
Warning: Simulation tolerance relaxed to achieve convergence from 4.2814032775076401e-02 to 4.2814032775076498e-02 seconds.
Warning: Simulation tolerance relaxed to achieve convergence from 4.2814032775077199e-02 to 4.2814032775077296e-02 seconds.
Warning: Simulation tolerance relaxed to achieve convergence from 4.2814032775077296e-02 to 4.2814032775077393e-02 seconds.
Warning: Simulation tolerance relaxed to achieve convergence from 4.2814032775077393e-02 to 4.2814032775077490e-02 seconds.
Warning: Simulation tolerance relaxed to achieve convergence from 4.2814032775077490e-02 to 4.2814032775077587e-02 seconds.
Warning: Simulation tolerance relaxed to achieve convergence from 4.2814032775077789e-02 to 4.2814032775077886e-02 seconds.
Warning: Simulation tolerance relaxed to achieve convergence from 4.2814032775077886e-02 to 4.2814032775077983e-02 seconds.
Warning: Simulation tolerance relaxed to achieve convergence from 4.2814032775077983e-02 to 4.2814032775078080e-02 seconds.
Warning: Simulation tolerance relaxed to achieve convergence from 4.2814032775078080e-02 to 4.2814032775078177e-02 seconds.
Warning: Simulation tolerance relaxed to achieve convergence from 4.2814032775078177e-02 to 4.2814032775078274e-02 seconds.
Warning: Simulation tolerance relaxed to achieve convergence from 4.2814032775078274e-02 to 4.2814032775078371e-02 seconds.
Warning: Simulation tolerance relaxed to achieve convergence from 4.2814032775078573e-02 to 4.2814032775078670e-02 seconds.
Warning: Simulation tolerance relaxed to achieve convergence from 4.2814032775078864e-02 to 4.2814032775078961e-02 seconds.
Warning: Simulation tolerance relaxed to achieve convergence from 4.2814032775078961e-02 to 4.2814032775079058e-02 seconds.
Warning: Simulation tolerance relaxed to achieve convergence from 4.2814032775079058e-02 to 4.2814032775079156e-02 seconds.
Warning: Simulation tolerance relaxed to achieve convergence from 4.2814032775079156e-02 to 4.2814032775079253e-02 seconds.
Warning: Simulation tolerance relaxed to achieve convergence from 4.2814032775079253e-02 to 4.2814032775079350e-02 seconds.
Warning: Simulation tolerance relaxed to achieve convergence from 4.2814032775079551e-02 to 4.2814032775079648e-02 seconds.
Warning: Simulation tolerance relaxed to achieve convergence from 4.2814032775079648e-02 to 4.2814032775079745e-02 seconds.
Warning: Simulation tolerance relaxed to achieve convergence from 4.2814032775079745e-02 to 4.2814032775079842e-02 seconds.
Warning: Simulation tolerance relaxed to achieve convergence from 4.2814032775079940e-02 to 4.2814032775080037e-02 seconds.
Warning: Simulation tolerance relaxed to achieve convergence from 4.2814032775080037e-02 to 4.2814032775080134e-02 seconds.
Warning: Simulation tolerance relaxed to achieve convergence from 4.2814032775080134e-02 to 4.2814032775080231e-02 seconds.
Warning: Simulation tolerance relaxed to achieve convergence from 4.2814032775080425e-02 to 4.2814032775080522e-02 seconds.
Warning: Simulation tolerance relaxed to achieve convergence from 4.2814032775080522e-02 to 4.2814032775080620e-02 seconds.
Warning: Simulation tolerance relaxed to achieve convergence from 4.2814032775080620e-02 to 4.2814032775080717e-02 seconds.
Warning: Simulation tolerance relaxed to achieve convergence from 4.2814032775080918e-02 to 4.2814032775081015e-02 seconds.
Warning: Simulation tolerance relaxed to achieve convergence from 4.2814032775081015e-02 to 4.2814032775081112e-02 seconds.
Warning: Simulation tolerance relaxed to achieve convergence from 4.2814032775081209e-02 to 4.2814032775081307e-02 seconds.
Warning: Simulation tolerance relaxed to achieve convergence from 4.2814032775081307e-02 to 4.2814032775081404e-02 seconds.
Warning: Simulation tolerance relaxed to achieve convergence from 4.2814032775081404e-02 to 4.2814032775081501e-02 seconds.
Warning: Simulation tolerance relaxed to achieve convergence from 4.2814032775081501e-02 to 4.2814032775081598e-02 seconds.
Warning: Simulation tolerance relaxed to achieve convergence from 4.2814032775081598e-02 to 4.2814032775081695e-02 seconds.
Warning: Simulation tolerance relaxed to achieve convergence from 4.2814032775081695e-02 to 4.2814032775081792e-02 seconds.
Warning: Simulation tolerance relaxed to achieve convergence from 4.2814032775081792e-02 to 4.2814032775081889e-02 seconds.
Warning: Simulation tolerance relaxed to achieve convergence from 4.2814032775082479e-02 to 4.2814032775082576e-02 seconds.
Warning: Simulation tolerance relaxed to achieve convergence from 4.2814032775082576e-02 to 4.2814032775082674e-02 seconds.
Warning: Simulation tolerance relaxed to achieve convergence from 4.2814032775082674e-02 to 4.2814032775082771e-02 seconds.
Warning: Simulation tolerance relaxed to achieve convergence from 4.2814032775082771e-02 to 4.2814032775082868e-02 seconds.
Warning: Simulation tolerance relaxed to achieve convergence from 4.2814032775082868e-02 to 4.2814032775082965e-02 seconds.
Warning: Simulation tolerance relaxed to achieve convergence from 4.2814032775082965e-02 to 4.2814032775083062e-02 seconds.
Warning: Simulation tolerance relaxed to achieve convergence from 4.2814032775083062e-02 to 4.2814032775083159e-02 seconds.
Warning: Simulation tolerance relaxed to achieve convergence from 4.2814032775083555e-02 to 4.2814032775083652e-02 seconds.
Warning: Simulation tolerance relaxed to achieve convergence from 4.2814032775083652e-02 to 4.2814032775083749e-02 seconds.
Warning: Simulation tolerance relaxed to achieve convergence from 4.2814032775083950e-02 to 4.2814032775084047e-02 seconds.
Warning: Simulation tolerance relaxed to achieve convergence from 4.2814032775084047e-02 to 4.2814032775084145e-02 seconds.
Warning: Simulation tolerance relaxed to achieve convergence from 4.2814032775084145e-02 to 4.2814032775084242e-02 seconds.
Warning: Simulation tolerance relaxed to achieve convergence from 4.2814032775084242e-02 to 4.2814032775084339e-02 seconds.
Warning: Simulation tolerance relaxed to achieve convergence from 4.2814032775084339e-02 to 4.2814032775084436e-02 seconds.
Warning: Simulation tolerance relaxed to achieve convergence from 4.2814032775084436e-02 to 4.2814032775084533e-02 seconds.
Warning: Simulation tolerance relaxed to achieve convergence from 4.2814032775084533e-02 to 4.2814032775084630e-02 seconds.
Warning: Simulation tolerance relaxed to achieve convergence from 4.2814032775084630e-02 to 4.2814032775084727e-02 seconds.
Warning: Simulation tolerance relaxed to achieve convergence from 4.2814032775084727e-02 to 4.2814032775084825e-02 seconds.
Warning: Simulation tolerance relaxed to achieve convergence from 4.2814032775084825e-02 to 4.2814032775084922e-02 seconds.
Warning: Simulation tolerance relaxed to achieve convergence from 4.2814032775084922e-02 to 4.2814032775085019e-02 seconds.
Warning: Simulation tolerance relaxed to achieve convergence from 4.2814032775085019e-02 to 4.2814032775085116e-02 seconds.
Warning: Simulation tolerance relaxed to achieve convergence from 4.2814032775085213e-02 to 4.2814032775085310e-02 seconds.
Warning: Simulation tolerance relaxed to achieve convergence from 4.2814032775085310e-02 to 4.2814032775085407e-02 seconds.
Warning: Simulation tolerance relaxed to achieve convergence from 4.2814032775085407e-02 to 4.2814032775085505e-02 seconds.
Warning: Simulation tolerance relaxed to achieve convergence from 4.2814032775085505e-02 to 4.2814032775085602e-02 seconds.
Warning: Simulation tolerance relaxed to achieve convergence from 4.2814032775085900e-02 to 4.2814032775085997e-02 seconds.
Warning: Simulation tolerance relaxed to achieve convergence from 4.2814032775085997e-02 to 4.2814032775086094e-02 seconds.
Warning: Simulation tolerance relaxed to achieve convergence from 4.2814032775086094e-02 to 4.2814032775086192e-02 seconds.
Warning: Simulation tolerance relaxed to achieve convergence from 4.2814032775086483e-02 to 4.2814032775086580e-02 seconds.
Warning: Simulation tolerance relaxed to achieve convergence from 4.2814032775086580e-02 to 4.2814032775086677e-02 seconds.
Warning: Simulation tolerance relaxed to achieve convergence from 4.2814032775086774e-02 to 4.2814032775086872e-02 seconds.
Warning: Simulation tolerance relaxed to achieve convergence from 4.2814032775086872e-02 to 4.2814032775086969e-02 seconds.
Warning: Simulation tolerance relaxed to achieve convergence from 4.2814032775086969e-02 to 4.2814032775087066e-02 seconds.
Warning: Simulation tolerance relaxed to achieve convergence from 4.2814032775087066e-02 to 4.2814032775087163e-02 seconds.
Warning: Simulation tolerance relaxed to achieve convergence from 4.2814032775087163e-02 to 4.2814032775087260e-02 seconds.
Warning: Simulation tolerance relaxed to achieve convergence from 4.2814032775087454e-02 to 4.2814032775087552e-02 seconds.
Warning: Simulation tolerance relaxed to achieve convergence from 4.2814032775087552e-02 to 4.2814032775087649e-02 seconds.
Warning: Simulation tolerance relaxed to achieve convergence from 4.2814032775088037e-02 to 4.2814032775088134e-02 seconds.
Warning: Simulation tolerance relaxed to achieve convergence from 4.2814032775088134e-02 to 4.2814032775088232e-02 seconds.
Warning: Simulation tolerance relaxed to achieve convergence from 4.2814032775088232e-02 to 4.2814032775088329e-02 seconds.
Warning: Simulation tolerance relaxed to achieve convergence from 4.2814032775088329e-02 to 4.2814032775088426e-02 seconds.
Warning: Simulation tolerance relaxed to achieve convergence from 4.2814032775088426e-02 to 4.2814032775088523e-02 seconds.
Warning: Simulation tolerance relaxed to achieve convergence from 4.2814032775088523e-02 to 4.2814032775088620e-02 seconds.
Warning: Simulation tolerance relaxed to achieve convergence from 4.2814032775088620e-02 to 4.2814032775088717e-02 seconds.
Warning: Simulation tolerance relaxed to achieve convergence from 4.2814032775088717e-02 to 4.2814032775088814e-02 seconds.
Warning: Simulation tolerance relaxed to achieve convergence from 4.2814032775088814e-02 to 4.2814032775088912e-02 seconds.
Warning: Simulation tolerance relaxed to achieve convergence from 4.2814032775088912e-02 to 4.2814032775089009e-02 seconds.
Warning: Simulation tolerance relaxed to achieve convergence from 4.2814032775089009e-02 to 4.2814032775089106e-02 seconds.
Warning: Simulation tolerance relaxed to achieve convergence from 4.2814032775089106e-02 to 4.2814032775089203e-02 seconds.
Warning: Simulation tolerance relaxed to achieve convergence from 4.2814032775089203e-02 to 4.2814032775089300e-02 seconds.
Warning: Simulation tolerance relaxed to achieve convergence from 4.2814032775089300e-02 to 4.2814032775089397e-02 seconds.
Warning: Simulation tolerance relaxed to achieve convergence from 4.2814032775089397e-02 to 4.2814032775089494e-02 seconds.
Warning: Simulation tolerance relaxed to achieve convergence from 4.2814032775089592e-02 to 4.2814032775089689e-02 seconds.
Warning: Simulation tolerance relaxed to achieve convergence from 4.2814032775089689e-02 to 4.2814032775089786e-02 seconds.
Warning: Simulation tolerance relaxed to achieve convergence from 4.2814032775089786e-02 to 4.2814032775089883e-02 seconds.
Warning: Simulation tolerance relaxed to achieve convergence from 4.2814032775089883e-02 to 4.2814032775089980e-02 seconds.
Warning: Simulation tolerance relaxed to achieve convergence from 4.2814032775089980e-02 to 4.2814032775090077e-02 seconds.
Warning: Simulation tolerance relaxed to achieve convergence from 4.2814032775090077e-02 to 4.2814032775090174e-02 seconds.
Warning: Simulation tolerance relaxed to achieve convergence from 4.2814032775090174e-02 to 4.2814032775090272e-02 seconds.
Warning: Simulation tolerance relaxed to achieve convergence from 4.2814032775090272e-02 to 4.2814032775090369e-02 seconds.
Warning: Simulation tolerance relaxed to achieve convergence from 4.2814032775090369e-02 to 4.2814032775090466e-02 seconds.
Warning: Simulation tolerance relaxed to achieve convergence from 4.2814032775090466e-02 to 4.2814032775090563e-02 seconds.
Warning: Simulation tolerance relaxed to achieve convergence from 4.2814032775090563e-02 to 4.2814032775090660e-02 seconds.
Warning: Simulation tolerance relaxed to achieve convergence from 4.2814032775090660e-02 to 4.2814032775090757e-02 seconds.
Warning: Simulation tolerance relaxed to achieve convergence from 4.2814032775090757e-02 to 4.2814032775090854e-02 seconds.
Warning: Simulation tolerance relaxed to achieve convergence from 4.2814032775090952e-02 to 4.2814032775091049e-02 seconds.
Warning: Simulation tolerance relaxed to achieve convergence from 4.2814032775091049e-02 to 4.2814032775091146e-02 seconds.
Warning: Simulation tolerance relaxed to achieve convergence from 4.2814032775091146e-02 to 4.2814032775091243e-02 seconds.
Warning: Simulation tolerance relaxed to achieve convergence from 4.2814032775091243e-02 to 4.2814032775091340e-02 seconds.
Warning: Simulation tolerance relaxed to achieve convergence from 4.2814032775091340e-02 to 4.2814032775091437e-02 seconds.
Warning: Simulation tolerance relaxed to achieve convergence from 4.2814032775091437e-02 to 4.2814032775091534e-02 seconds.
Warning: Simulation tolerance relaxed to achieve convergence from 4.2814032775091534e-02 to 4.2814032775091632e-02 seconds.
Warning: Simulation tolerance relaxed to achieve convergence from 4.2814032775091632e-02 to 4.2814032775091729e-02 seconds.
Warning: Simulation tolerance relaxed to achieve convergence from 4.2814032775093130e-02 to 4.2814032775093228e-02 seconds.
Warning: Simulation tolerance relaxed to achieve convergence from 4.2814032775093429e-02 to 4.2814032775093526e-02 seconds.
Warning: Simulation tolerance relaxed to achieve convergence from 4.2814032775093526e-02 to 4.2814032775093623e-02 seconds.
Warning: Simulation tolerance relaxed to achieve convergence from 4.2814032775093623e-02 to 4.2814032775093720e-02 seconds.
Warning: Simulation tolerance relaxed to achieve convergence from 4.2814032775093720e-02 to 4.2814032775093817e-02 seconds.
Warning: Simulation tolerance relaxed to achieve convergence from 4.2814032775093817e-02 to 4.2814032775093915e-02 seconds.
Warning: Simulation tolerance relaxed to achieve convergence from 4.2814032775093915e-02 to 4.2814032775094012e-02 seconds.
Warning: Simulation tolerance relaxed to achieve convergence from 4.2814032775094012e-02 to 4.2814032775094109e-02 seconds.
Warning: Simulation tolerance relaxed to achieve convergence from 4.2814032775094109e-02 to 4.2814032775094206e-02 seconds.
Warning: Simulation tolerance relaxed to achieve convergence from 4.2814032775094206e-02 to 4.2814032775094303e-02 seconds.
Warning: Simulation tolerance relaxed to achieve convergence from 4.2814032775094303e-02 to 4.2814032775094400e-02 seconds.
Warning: Simulation tolerance relaxed to achieve convergence from 4.2814032775094601e-02 to 4.2814032775094699e-02 seconds.
Warning: Simulation tolerance relaxed to achieve convergence from 4.2814032775094699e-02 to 4.2814032775094796e-02 seconds.
Warning: Simulation tolerance relaxed to achieve convergence from 4.2814032775094796e-02 to 4.2814032775094893e-02 seconds.
Warning: Simulation tolerance relaxed to achieve convergence from 4.2814032775094893e-02 to 4.2814032775094990e-02 seconds.
Warning: Simulation tolerance relaxed to achieve convergence from 4.2814032775094990e-02 to 4.2814032775095087e-02 seconds.
Warning: Simulation tolerance relaxed to achieve convergence from 4.2814032775095087e-02 to 4.2814032775095184e-02 seconds.
Warning: Simulation tolerance relaxed to achieve convergence from 4.2814032775095184e-02 to 4.2814032775095281e-02 seconds.
Warning: Simulation tolerance relaxed to achieve convergence from 4.2814032775095483e-02 to 4.2814032775095580e-02 seconds.
Warning: Simulation tolerance relaxed to achieve convergence from 4.2814032775095580e-02 to 4.2814032775095677e-02 seconds.
Warning: Simulation tolerance relaxed to achieve convergence from 4.2814032775095677e-02 to 4.2814032775095774e-02 seconds.
Warning: Simulation tolerance relaxed to achieve convergence from 4.2814032775095774e-02 to 4.2814032775095871e-02 seconds.
Warning: Simulation tolerance relaxed to achieve convergence from 4.2814032775095871e-02 to 4.2814032775095968e-02 seconds.
Warning: Simulation tolerance relaxed to achieve convergence from 4.2814032775095968e-02 to 4.2814032775096066e-02 seconds.
Warning: Simulation tolerance relaxed to achieve convergence from 4.2814032775096066e-02 to 4.2814032775096163e-02 seconds.
Warning: Simulation tolerance relaxed to achieve convergence from 4.2814032775096260e-02 to 4.2814032775096357e-02 seconds.
Warning: Simulation tolerance relaxed to achieve convergence from 4.2814032775097058e-02 to 4.2814032775097155e-02 seconds.
Warning: Simulation tolerance relaxed to achieve convergence from 4.2814032775097155e-02 to 4.2814032775097252e-02 seconds.
Warning: Simulation tolerance relaxed to achieve convergence from 4.2814032775097252e-02 to 4.2814032775097349e-02 seconds.
Warning: Simulation tolerance relaxed to achieve convergence from 4.2814032775097349e-02 to 4.2814032775097446e-02 seconds.
Warning: Simulation tolerance relaxed to achieve convergence from 4.2814032775097544e-02 to 4.2814032775097641e-02 seconds.
Warning: Simulation tolerance relaxed to achieve convergence from 4.2814032775097641e-02 to 4.2814032775097738e-02 seconds.
Warning: Simulation tolerance relaxed to achieve convergence from 4.2814032775097738e-02 to 4.2814032775097835e-02 seconds.
Warning: Simulation tolerance relaxed to achieve convergence from 4.2814032775097835e-02 to 4.2814032775097932e-02 seconds.
Warning: Simulation tolerance relaxed to achieve convergence from 4.2814032775097932e-02 to 4.2814032775098029e-02 seconds.
Warning: Simulation tolerance relaxed to achieve convergence from 4.2814032775098029e-02 to 4.2814032775098126e-02 seconds.
Warning: Simulation tolerance relaxed to achieve convergence from 4.2814032775098126e-02 to 4.2814032775098224e-02 seconds.
Warning: Simulation tolerance relaxed to achieve convergence from 4.2814032775098224e-02 to 4.2814032775098321e-02 seconds.
Warning: Simulation tolerance relaxed to achieve convergence from 4.2814032775098418e-02 to 4.2814032775098515e-02 seconds.
Warning: Simulation tolerance relaxed to achieve convergence from 4.2814032775098612e-02 to 4.2814032775098709e-02 seconds.
Warning: Simulation tolerance relaxed to achieve convergence from 4.2814032775098709e-02 to 4.2814032775098806e-02 seconds.
Warning: Simulation tolerance relaxed to achieve convergence from 4.2814032775098806e-02 to 4.2814032775098904e-02 seconds.
Warning: Simulation tolerance relaxed to achieve convergence from 4.2814032775098904e-02 to 4.2814032775099001e-02 seconds.
Warning: Simulation tolerance relaxed to achieve convergence from 4.2814032775099001e-02 to 4.2814032775099098e-02 seconds.
Warning: Simulation tolerance relaxed to achieve convergence from 4.2814032775099098e-02 to 4.2814032775099195e-02 seconds.
Warning: Simulation tolerance relaxed to achieve convergence from 4.2814032775099195e-02 to 4.2814032775099292e-02 seconds.
Warning: Simulation tolerance relaxed to achieve convergence from 4.2814032775099292e-02 to 4.2814032775099389e-02 seconds.
Warning: Simulation tolerance relaxed to achieve convergence from 4.2814032775099389e-02 to 4.2814032775099486e-02 seconds.
Warning: Simulation tolerance relaxed to achieve convergence from 4.2814032775099486e-02 to 4.2814032775099584e-02 seconds.
Warning: Simulation tolerance relaxed to achieve convergence from 4.2814032775099584e-02 to 4.2814032775099681e-02 seconds.
Warning: Simulation tolerance relaxed to achieve convergence from 4.2814032775099882e-02 to 4.2814032775099979e-02 seconds.
Warning: Simulation tolerance relaxed to achieve convergence from 4.2814032775100076e-02 to 4.2814032775100173e-02 seconds.
Warning: Simulation tolerance relaxed to achieve convergence from 4.2814032775100173e-02 to 4.2814032775100271e-02 seconds.
Warning: Simulation tolerance relaxed to achieve convergence from 4.2814032775100271e-02 to 4.2814032775100368e-02 seconds.
Warning: Simulation tolerance relaxed to achieve convergence from 4.2814032775100368e-02 to 4.2814032775100465e-02 seconds.
Warning: Simulation tolerance relaxed to achieve convergence from 4.2814032775100465e-02 to 4.2814032775100562e-02 seconds.
Warning: Simulation tolerance relaxed to achieve convergence from 4.2814032775100659e-02 to 4.2814032775100756e-02 seconds.
Warning: Simulation tolerance relaxed to achieve convergence from 4.2814032775100756e-02 to 4.2814032775100853e-02 seconds.
Warning: Simulation tolerance relaxed to achieve convergence from 4.2814032775100853e-02 to 4.2814032775100951e-02 seconds.
Warning: Simulation tolerance relaxed to achieve convergence from 4.2814032775101152e-02 to 4.2814032775101249e-02 seconds.
Warning: Simulation tolerance relaxed to achieve convergence from 4.2814032775101249e-02 to 4.2814032775101346e-02 seconds.
Warning: Simulation tolerance relaxed to achieve convergence from 4.2814032775101346e-02 to 4.2814032775101443e-02 seconds.
Warning: Simulation tolerance relaxed to achieve convergence from 4.2814032775101443e-02 to 4.2814032775101540e-02 seconds.
Warning: Simulation tolerance relaxed to achieve convergence from 4.2814032775101839e-02 to 4.2814032775101936e-02 seconds.
Warning: Simulation tolerance relaxed to achieve convergence from 4.2814032775101936e-02 to 4.2814032775102033e-02 seconds.
Warning: Simulation tolerance relaxed to achieve convergence from 4.2814032775102033e-02 to 4.2814032775102130e-02 seconds.
Warning: Simulation tolerance relaxed to achieve convergence from 4.2814032775102130e-02 to 4.2814032775102227e-02 seconds.
Warning: Simulation tolerance relaxed to achieve convergence from 4.2814032775102429e-02 to 4.2814032775102526e-02 seconds.
Warning: Simulation tolerance relaxed to achieve convergence from 4.2814032775102526e-02 to 4.2814032775102623e-02 seconds.
Warning: Simulation tolerance relaxed to achieve convergence from 4.2814032775102623e-02 to 4.2814032775102720e-02 seconds.
Warning: Simulation tolerance relaxed to achieve convergence from 4.2814032775102914e-02 to 4.2814032775103011e-02 seconds.
Warning: Simulation tolerance relaxed to achieve convergence from 4.2814032775103011e-02 to 4.2814032775103109e-02 seconds.
Warning: Simulation tolerance relaxed to achieve convergence from 4.2814032775103109e-02 to 4.2814032775103206e-02 seconds.
Warning: Simulation tolerance relaxed to achieve convergence from 4.2814032775103206e-02 to 4.2814032775103303e-02 seconds.
Warning: Simulation tolerance relaxed to achieve convergence from 4.2814032775103504e-02 to 4.2814032775103601e-02 seconds.
Warning: Simulation tolerance relaxed to achieve convergence from 4.2814032775103601e-02 to 4.2814032775103698e-02 seconds.
Warning: Simulation tolerance relaxed to achieve convergence from 4.2814032775103698e-02 to 4.2814032775103796e-02 seconds.
Warning: Simulation tolerance relaxed to achieve convergence from 4.2814032775103893e-02 to 4.2814032775103990e-02 seconds.
Warning: Simulation tolerance relaxed to achieve convergence from 4.2814032775103990e-02 to 4.2814032775104087e-02 seconds.
Warning: Simulation tolerance relaxed to achieve convergence from 4.2814032775104087e-02 to 4.2814032775104184e-02 seconds.
Warning: Simulation tolerance relaxed to achieve convergence from 4.2814032775104184e-02 to 4.2814032775104281e-02 seconds.
Warning: Simulation tolerance relaxed to achieve convergence from 4.2814032775104482e-02 to 4.2814032775104580e-02 seconds.
Warning: Simulation tolerance relaxed to achieve convergence from 4.2814032775104878e-02 to 4.2814032775104975e-02 seconds.
Warning: Simulation tolerance relaxed to achieve convergence from 4.2814032775104975e-02 to 4.2814032775105072e-02 seconds.
Warning: Simulation tolerance relaxed to achieve convergence from 4.2814032775105267e-02 to 4.2814032775105364e-02 seconds.
Warning: Simulation tolerance relaxed to achieve convergence from 4.2814032775105364e-02 to 4.2814032775105461e-02 seconds.
Warning: Simulation tolerance relaxed to achieve convergence from 4.2814032775105461e-02 to 4.2814032775105558e-02 seconds.
Warning: Simulation tolerance relaxed to achieve convergence from 4.2814032775105558e-02 to 4.2814032775105655e-02 seconds.
Warning: Simulation tolerance relaxed to achieve convergence from 4.2814032775105752e-02 to 4.2814032775105849e-02 seconds.
Warning: Simulation tolerance relaxed to achieve convergence from 4.2814032775105849e-02 to 4.2814032775105947e-02 seconds.
Warning: Simulation tolerance relaxed to achieve convergence from 4.2814032775105947e-02 to 4.2814032775106044e-02 seconds.
Warning: Simulation tolerance relaxed to achieve convergence from 4.2814032775106044e-02 to 4.2814032775106141e-02 seconds.
Warning: Simulation tolerance relaxed to achieve convergence from 4.2814032775106141e-02 to 4.2814032775106238e-02 seconds.
Warning: Simulation tolerance relaxed to achieve convergence from 4.2814032775106238e-02 to 4.2814032775106335e-02 seconds.
Warning: Simulation tolerance relaxed to achieve convergence from 4.2814032775106335e-02 to 4.2814032775106432e-02 seconds.
Warning: Simulation tolerance relaxed to achieve convergence from 4.2814032775106432e-02 to 4.2814032775106529e-02 seconds.
Warning: Simulation tolerance relaxed to achieve convergence from 4.2814032775106529e-02 to 4.2814032775106627e-02 seconds.
Warning: Simulation tolerance relaxed to achieve convergence from 4.2814032775106821e-02 to 4.2814032775106918e-02 seconds.
Warning: Simulation tolerance relaxed to achieve convergence from 4.2814032775107112e-02 to 4.2814032775107209e-02 seconds.
Warning: Simulation tolerance relaxed to achieve convergence from 4.2814032775107404e-02 to 4.2814032775107501e-02 seconds.
Warning: Simulation tolerance relaxed to achieve convergence from 4.2814032775107501e-02 to 4.2814032775107598e-02 seconds.
Warning: Simulation tolerance relaxed to achieve convergence from 4.2814032775107598e-02 to 4.2814032775107695e-02 seconds.
Warning: Simulation tolerance relaxed to achieve convergence from 4.2814032775107792e-02 to 4.2814032775107889e-02 seconds.
Warning: Simulation tolerance relaxed to achieve convergence from 4.2814032775107889e-02 to 4.2814032775107987e-02 seconds.
Warning: Simulation tolerance relaxed to achieve convergence from 4.2814032775107987e-02 to 4.2814032775108084e-02 seconds.
Warning: Simulation tolerance relaxed to achieve convergence from 4.2814032775108278e-02 to 4.2814032775108375e-02 seconds.
Warning: Simulation tolerance relaxed to achieve convergence from 4.2814032775108375e-02 to 4.2814032775108472e-02 seconds.
Warning: Simulation tolerance relaxed to achieve convergence from 4.2814032775108472e-02 to 4.2814032775108569e-02 seconds.
Warning: Simulation tolerance relaxed to achieve convergence from 4.2814032775108569e-02 to 4.2814032775108667e-02 seconds.
Warning: Simulation tolerance relaxed to achieve convergence from 4.2814032775108868e-02 to 4.2814032775108965e-02 seconds.
Warning: Simulation tolerance relaxed to achieve convergence from 4.2814032775108965e-02 to 4.2814032775109062e-02 seconds.
Warning: Simulation tolerance relaxed to achieve convergence from 4.2814032775109256e-02 to 4.2814032775109354e-02 seconds.
Warning: Simulation tolerance relaxed to achieve convergence from 4.2814032775109354e-02 to 4.2814032775109451e-02 seconds.
Warning: Simulation tolerance relaxed to achieve convergence from 4.2814032775109749e-02 to 4.2814032775109846e-02 seconds.
Warning: Simulation tolerance relaxed to achieve convergence from 4.2814032775109846e-02 to 4.2814032775109943e-02 seconds.
Warning: Simulation tolerance relaxed to achieve convergence from 4.2814032775109943e-02 to 4.2814032775110041e-02 seconds.
Warning: Simulation tolerance relaxed to achieve convergence from 4.2814032775110041e-02 to 4.2814032775110138e-02 seconds.
Warning: Simulation tolerance relaxed to achieve convergence from 4.2814032775110138e-02 to 4.2814032775110235e-02 seconds.
Warning: Simulation tolerance relaxed to achieve convergence from 4.2814032775110235e-02 to 4.2814032775110332e-02 seconds.
Warning: Simulation tolerance relaxed to achieve convergence from 4.2814032775110533e-02 to 4.2814032775110630e-02 seconds.
Warning: Simulation tolerance relaxed to achieve convergence from 4.2814032775110630e-02 to 4.2814032775110727e-02 seconds.
Warning: Simulation tolerance relaxed to achieve convergence from 4.2814032775110727e-02 to 4.2814032775110825e-02 seconds.
Warning: Simulation tolerance relaxed to achieve convergence from 4.2814032775111519e-02 to 4.2814032775111616e-02 seconds.
Warning: Simulation tolerance relaxed to achieve convergence from 4.2814032775111713e-02 to 4.2814032775111810e-02 seconds.
Warning: Simulation tolerance relaxed to achieve convergence from 4.2814032775111907e-02 to 4.2814032775112004e-02 seconds.
Warning: Simulation tolerance relaxed to achieve convergence from 4.2814032775112101e-02 to 4.2814032775112199e-02 seconds.
Warning: Simulation tolerance relaxed to achieve convergence from 4.2814032775112199e-02 to 4.2814032775112296e-02 seconds.
Warning: Simulation tolerance relaxed to achieve convergence from 4.2814032775112296e-02 to 4.2814032775112393e-02 seconds.
Warning: Simulation tolerance relaxed to achieve convergence from 4.2814032775112393e-02 to 4.2814032775112490e-02 seconds.
Warning: Simulation tolerance relaxed to achieve convergence from 4.2814032775112587e-02 to 4.2814032775112684e-02 seconds.
Warning: Simulation tolerance relaxed to achieve convergence from 4.2814032775112781e-02 to 4.2814032775112879e-02 seconds.
Warning: Simulation tolerance relaxed to achieve convergence from 4.2814032775112879e-02 to 4.2814032775112976e-02 seconds.
Warning: Simulation tolerance relaxed to achieve convergence from 4.2814032775112976e-02 to 4.2814032775113073e-02 seconds.
Warning: Simulation tolerance relaxed to achieve convergence from 4.2814032775113274e-02 to 4.2814032775113371e-02 seconds.
Warning: Simulation tolerance relaxed to achieve convergence from 4.2814032775113371e-02 to 4.2814032775113468e-02 seconds.
Warning: Simulation tolerance relaxed to achieve convergence from 4.2814032775113468e-02 to 4.2814032775113565e-02 seconds.
Warning: Simulation tolerance relaxed to achieve convergence from 4.2814032775113760e-02 to 4.2814032775113857e-02 seconds.
Warning: Simulation tolerance relaxed to achieve convergence from 4.2814032775113857e-02 to 4.2814032775113954e-02 seconds.
Warning: Simulation tolerance relaxed to achieve convergence from 4.2814032775113954e-02 to 4.2814032775114051e-02 seconds.
Warning: Simulation tolerance relaxed to achieve convergence from 4.2814032775114252e-02 to 4.2814032775114350e-02 seconds.
Warning: Simulation tolerance relaxed to achieve convergence from 4.2814032775114350e-02 to 4.2814032775114447e-02 seconds.
Warning: Simulation tolerance relaxed to achieve convergence from 4.2814032775114447e-02 to 4.2814032775114544e-02 seconds.
Warning: Simulation tolerance relaxed to achieve convergence from 4.2814032775114544e-02 to 4.2814032775114641e-02 seconds.
Warning: Simulation tolerance relaxed to achieve convergence from 4.2814032775114641e-02 to 4.2814032775114738e-02 seconds.
Warning: Simulation tolerance relaxed to achieve convergence from 4.2814032775114738e-02 to 4.2814032775114835e-02 seconds.
Warning: Simulation tolerance relaxed to achieve convergence from 4.2814032775115037e-02 to 4.2814032775115134e-02 seconds.
Warning: Simulation tolerance relaxed to achieve convergence from 4.2814032775115425e-02 to 4.2814032775115522e-02 seconds.
Warning: Simulation tolerance relaxed to achieve convergence from 4.2814032775115522e-02 to 4.2814032775115619e-02 seconds.
Warning: Simulation tolerance relaxed to achieve convergence from 4.2814032775115619e-02 to 4.2814032775115717e-02 seconds.
Warning: Simulation tolerance relaxed to achieve convergence from 4.2814032775115717e-02 to 4.2814032775115814e-02 seconds.
Warning: Simulation tolerance relaxed to achieve convergence from 4.2814032775115814e-02 to 4.2814032775115911e-02 seconds.
Warning: Simulation tolerance relaxed to achieve convergence from 4.2814032775116008e-02 to 4.2814032775116105e-02 seconds.
Warning: Simulation tolerance relaxed to achieve convergence from 4.2814032775116105e-02 to 4.2814032775116202e-02 seconds.
Warning: Simulation tolerance relaxed to achieve convergence from 4.2814032775116202e-02 to 4.2814032775116299e-02 seconds.
Warning: Simulation tolerance relaxed to achieve convergence from 4.2814032775116299e-02 to 4.2814032775116397e-02 seconds.
Warning: Simulation tolerance relaxed to achieve convergence from 4.2814032775116397e-02 to 4.2814032775116494e-02 seconds.
Warning: Simulation tolerance relaxed to achieve convergence from 4.2814032775116695e-02 to 4.2814032775116792e-02 seconds.
Warning: Simulation tolerance relaxed to achieve convergence from 4.2814032775116993e-02 to 4.2814032775117090e-02 seconds.
Warning: Simulation tolerance relaxed to achieve convergence from 4.2814032775117389e-02 to 4.2814032775117486e-02 seconds.
Warning: Simulation tolerance relaxed to achieve convergence from 4.2814032775117486e-02 to 4.2814032775117583e-02 seconds.
Warning: Simulation tolerance relaxed to achieve convergence from 4.2814032775117583e-02 to 4.2814032775117680e-02 seconds.
Warning: Simulation tolerance relaxed to achieve convergence from 4.2814032775117680e-02 to 4.2814032775117777e-02 seconds.
Warning: Simulation tolerance relaxed to achieve convergence from 4.2814032775117777e-02 to 4.2814032775117875e-02 seconds.
Warning: Simulation tolerance relaxed to achieve convergence from 4.2814032775117875e-02 to 4.2814032775117972e-02 seconds.
Warning: Simulation tolerance relaxed to achieve convergence from 4.2814032775117972e-02 to 4.2814032775118069e-02 seconds.
Warning: Simulation tolerance relaxed to achieve convergence from 4.2814032775118166e-02 to 4.2814032775118263e-02 seconds.
Warning: Simulation tolerance relaxed to achieve convergence from 4.2814032775118360e-02 to 4.2814032775118457e-02 seconds.
Warning: Simulation tolerance relaxed to achieve convergence from 4.2814032775118555e-02 to 4.2814032775118652e-02 seconds.
Warning: Simulation tolerance relaxed to achieve convergence from 4.2814032775118652e-02 to 4.2814032775118749e-02 seconds.
Warning: Simulation tolerance relaxed to achieve convergence from 4.2814032775118749e-02 to 4.2814032775118846e-02 seconds.
Warning: Simulation tolerance relaxed to achieve convergence from 4.2814032775118943e-02 to 4.2814032775119040e-02 seconds.
Warning: Simulation tolerance relaxed to achieve convergence from 4.2814032775119040e-02 to 4.2814032775119137e-02 seconds.
Warning: Simulation tolerance relaxed to achieve convergence from 4.2814032775119137e-02 to 4.2814032775119235e-02 seconds.
Warning: Simulation tolerance relaxed to achieve convergence from 4.2814032775119235e-02 to 4.2814032775119332e-02 seconds.
Warning: Simulation tolerance relaxed to achieve convergence from 4.2814032775119533e-02 to 4.2814032775119630e-02 seconds.
Warning: Simulation tolerance relaxed to achieve convergence from 4.2814032775119630e-02 to 4.2814032775119727e-02 seconds.
Warning: Simulation tolerance relaxed to achieve convergence from 4.2814032775119824e-02 to 4.2814032775119922e-02 seconds.
Warning: Simulation tolerance relaxed to achieve convergence from 4.2814032775120123e-02 to 4.2814032775120220e-02 seconds.
Warning: Simulation tolerance relaxed to achieve convergence from 4.2814032775120220e-02 to 4.2814032775120317e-02 seconds.
Warning: Simulation tolerance relaxed to achieve convergence from 4.2814032775120317e-02 to 4.2814032775120414e-02 seconds.
Warning: Simulation tolerance relaxed to achieve convergence from 4.2814032775120414e-02 to 4.2814032775120511e-02 seconds.
Warning: Simulation tolerance relaxed to achieve convergence from 4.2814032775120511e-02 to 4.2814032775120608e-02 seconds.
Warning: Simulation tolerance relaxed to achieve convergence from 4.2814032775120608e-02 to 4.2814032775120706e-02 seconds.
Warning: Simulation tolerance relaxed to achieve convergence from 4.2814032775120706e-02 to 4.2814032775120803e-02 seconds.
Warning: Simulation tolerance relaxed to achieve convergence from 4.2814032775120803e-02 to 4.2814032775120900e-02 seconds.
Warning: Simulation tolerance relaxed to achieve convergence from 4.2814032775120900e-02 to 4.2814032775120997e-02 seconds.
Warning: Simulation tolerance relaxed to achieve convergence from 4.2814032775120997e-02 to 4.2814032775121094e-02 seconds.
Warning: Simulation tolerance relaxed to achieve convergence from 4.2814032775121094e-02 to 4.2814032775121191e-02 seconds.
Warning: Simulation tolerance relaxed to achieve convergence from 4.2814032775121191e-02 to 4.2814032775121288e-02 seconds.
Warning: Simulation tolerance relaxed to achieve convergence from 4.2814032775121490e-02 to 4.2814032775121587e-02 seconds.
Warning: Simulation tolerance relaxed to achieve convergence from 4.2814032775121587e-02 to 4.2814032775121684e-02 seconds.
Warning: Simulation tolerance relaxed to achieve convergence from 4.2814032775121684e-02 to 4.2814032775121781e-02 seconds.
Warning: Simulation tolerance relaxed to achieve convergence from 4.2814032775121781e-02 to 4.2814032775121878e-02 seconds.
Warning: Simulation tolerance relaxed to achieve convergence from 4.2814032775121878e-02 to 4.2814032775121975e-02 seconds.
Warning: Simulation tolerance relaxed to achieve convergence from 4.2814032775121975e-02 to 4.2814032775122073e-02 seconds.
Warning: Simulation tolerance relaxed to achieve convergence from 4.2814032775122073e-02 to 4.2814032775122170e-02 seconds.
Warning: Simulation tolerance relaxed to achieve convergence from 4.2814032775122364e-02 to 4.2814032775122461e-02 seconds.
Warning: Simulation tolerance relaxed to achieve convergence from 4.2814032775122461e-02 to 4.2814032775122558e-02 seconds.
Warning: Simulation tolerance relaxed to achieve convergence from 4.2814032775122558e-02 to 4.2814032775122655e-02 seconds.
Warning: Simulation tolerance relaxed to achieve convergence from 4.2814032775122655e-02 to 4.2814032775122753e-02 seconds.
Warning: Simulation tolerance relaxed to achieve convergence from 4.2814032775122753e-02 to 4.2814032775122850e-02 seconds.
Warning: Simulation tolerance relaxed to achieve convergence from 4.2814032775122850e-02 to 4.2814032775122947e-02 seconds.
Warning: Simulation tolerance relaxed to achieve convergence from 4.2814032775123044e-02 to 4.2814032775123141e-02 seconds.
Warning: Simulation tolerance relaxed to achieve convergence from 4.2814032775123141e-02 to 4.2814032775123238e-02 seconds.
Warning: Simulation tolerance relaxed to achieve convergence from 4.2814032775123238e-02 to 4.2814032775123335e-02 seconds.
Warning: Simulation tolerance relaxed to achieve convergence from 4.2814032775123433e-02 to 4.2814032775123530e-02 seconds.
Warning: Simulation tolerance relaxed to achieve convergence from 4.2814032775123530e-02 to 4.2814032775123627e-02 seconds.
Warning: Simulation tolerance relaxed to achieve convergence from 4.2814032775123627e-02 to 4.2814032775123724e-02 seconds.
Warning: Simulation tolerance relaxed to achieve convergence from 4.2814032775124022e-02 to 4.2814032775124120e-02 seconds.
Warning: Simulation tolerance relaxed to achieve convergence from 4.2814032775124120e-02 to 4.2814032775124217e-02 seconds.
Warning: Simulation tolerance relaxed to achieve convergence from 4.2814032775124217e-02 to 4.2814032775124314e-02 seconds.
Warning: Simulation tolerance relaxed to achieve convergence from 4.2814032775124314e-02 to 4.2814032775124411e-02 seconds.
Warning: Simulation tolerance relaxed to achieve convergence from 4.2814032775124411e-02 to 4.2814032775124508e-02 seconds.
Warning: Simulation tolerance relaxed to achieve convergence from 4.2814032775124508e-02 to 4.2814032775124605e-02 seconds.
Warning: Simulation tolerance relaxed to achieve convergence from 4.2814032775124605e-02 to 4.2814032775124702e-02 seconds.
Warning: Simulation tolerance relaxed to achieve convergence from 4.2814032775125098e-02 to 4.2814032775125195e-02 seconds.
Warning: Simulation tolerance relaxed to achieve convergence from 4.2814032775125292e-02 to 4.2814032775125389e-02 seconds.
Warning: Simulation tolerance relaxed to achieve convergence from 4.2814032775125389e-02 to 4.2814032775125486e-02 seconds.
Warning: Simulation tolerance relaxed to achieve convergence from 4.2814032775125486e-02 to 4.2814032775125584e-02 seconds.
Warning: Simulation tolerance relaxed to achieve convergence from 4.2814032775125584e-02 to 4.2814032775125681e-02 seconds.
Warning: Simulation tolerance relaxed to achieve convergence from 4.2814032775125882e-02 to 4.2814032775125979e-02 seconds.
Warning: Simulation tolerance relaxed to achieve convergence from 4.2814032775126076e-02 to 4.2814032775126173e-02 seconds.
Warning: Simulation tolerance relaxed to achieve convergence from 4.2814032775126173e-02 to 4.2814032775126271e-02 seconds.
Warning: Simulation tolerance relaxed to achieve convergence from 4.2814032775126472e-02 to 4.2814032775126569e-02 seconds.
Warning: Simulation tolerance relaxed to achieve convergence from 4.2814032775126569e-02 to 4.2814032775126666e-02 seconds.
Warning: Simulation tolerance relaxed to achieve convergence from 4.2814032775126666e-02 to 4.2814032775126763e-02 seconds.
Warning: Simulation tolerance relaxed to achieve convergence from 4.2814032775126763e-02 to 4.2814032775126860e-02 seconds.
Warning: Simulation tolerance relaxed to achieve convergence from 4.2814032775126860e-02 to 4.2814032775126958e-02 seconds.
Warning: Simulation tolerance relaxed to achieve convergence from 4.2814032775127256e-02 to 4.2814032775127353e-02 seconds.
Warning: Simulation tolerance relaxed to achieve convergence from 4.2814032775127353e-02 to 4.2814032775127450e-02 seconds.
Warning: Simulation tolerance relaxed to achieve convergence from 4.2814032775127547e-02 to 4.2814032775127644e-02 seconds.
Warning: Simulation tolerance relaxed to achieve convergence from 4.2814032775127742e-02 to 4.2814032775127839e-02 seconds.
Warning: Simulation tolerance relaxed to achieve convergence from 4.2814032775127839e-02 to 4.2814032775127936e-02 seconds.
Warning: Simulation tolerance relaxed to achieve convergence from 4.2814032775127936e-02 to 4.2814032775128033e-02 seconds.
Warning: Simulation tolerance relaxed to achieve convergence from 4.2814032775128033e-02 to 4.2814032775128130e-02 seconds.
Warning: Simulation tolerance relaxed to achieve convergence from 4.2814032775128130e-02 to 4.2814032775128227e-02 seconds.
Warning: Simulation tolerance relaxed to achieve convergence from 4.2814032775128325e-02 to 4.2814032775128422e-02 seconds.
Warning: Simulation tolerance relaxed to achieve convergence from 4.2814032775128519e-02 to 4.2814032775128616e-02 seconds.
Warning: Simulation tolerance relaxed to achieve convergence from 4.2814032775128616e-02 to 4.2814032775128713e-02 seconds.
Warning: Simulation tolerance relaxed to achieve convergence from 4.2814032775128713e-02 to 4.2814032775128810e-02 seconds.
Warning: Simulation tolerance relaxed to achieve convergence from 4.2814032775128810e-02 to 4.2814032775128907e-02 seconds.
Warning: Simulation tolerance relaxed to achieve convergence from 4.2814032775128907e-02 to 4.2814032775129005e-02 seconds.
Warning: Simulation tolerance relaxed to achieve convergence from 4.2814032775129005e-02 to 4.2814032775129102e-02 seconds.
Warning: Simulation tolerance relaxed to achieve convergence from 4.2814032775129303e-02 to 4.2814032775129400e-02 seconds.
Warning: Simulation tolerance relaxed to achieve convergence from 4.2814032775129497e-02 to 4.2814032775129594e-02 seconds.
Warning: Simulation tolerance relaxed to achieve convergence from 4.2814032775129594e-02 to 4.2814032775129691e-02 seconds.
Warning: Simulation tolerance relaxed to achieve convergence from 4.2814032775129691e-02 to 4.2814032775129789e-02 seconds.
Warning: Simulation tolerance relaxed to achieve convergence from 4.2814032775129990e-02 to 4.2814032775130087e-02 seconds.
Warning: Simulation tolerance relaxed to achieve convergence from 4.2814032775130087e-02 to 4.2814032775130184e-02 seconds.
Warning: Simulation tolerance relaxed to achieve convergence from 4.2814032775130385e-02 to 4.2814032775130482e-02 seconds.
Warning: Simulation tolerance relaxed to achieve convergence from 4.2814032775130482e-02 to 4.2814032775130580e-02 seconds.
Warning: Simulation tolerance relaxed to achieve convergence from 4.2814032775130580e-02 to 4.2814032775130677e-02 seconds.
Warning: Simulation tolerance relaxed to achieve convergence from 4.2814032775130677e-02 to 4.2814032775130774e-02 seconds.
Warning: Simulation tolerance relaxed to achieve convergence from 4.2814032775130774e-02 to 4.2814032775130871e-02 seconds.
Warning: Simulation tolerance relaxed to achieve convergence from 4.2814032775130871e-02 to 4.2814032775130968e-02 seconds.
Warning: Simulation tolerance relaxed to achieve convergence from 4.2814032775130968e-02 to 4.2814032775131065e-02 seconds.
Warning: Simulation tolerance relaxed to achieve convergence from 4.2814032775131065e-02 to 4.2814032775131163e-02 seconds.
Warning: Simulation tolerance relaxed to achieve convergence from 4.2814032775131260e-02 to 4.2814032775131357e-02 seconds.
Warning: Simulation tolerance relaxed to achieve convergence from 4.2814032775131357e-02 to 4.2814032775131454e-02 seconds.
Warning: Simulation tolerance relaxed to achieve convergence from 4.2814032775131454e-02 to 4.2814032775131551e-02 seconds.
Warning: Simulation tolerance relaxed to achieve convergence from 4.2814032775131849e-02 to 4.2814032775131947e-02 seconds.
Warning: Simulation tolerance relaxed to achieve convergence from 4.2814032775132044e-02 to 4.2814032775132141e-02 seconds.
Warning: Simulation tolerance relaxed to achieve convergence from 4.2814032775132141e-02 to 4.2814032775132238e-02 seconds.
Warning: Simulation tolerance relaxed to achieve convergence from 4.2814032775132238e-02 to 4.2814032775132335e-02 seconds.
Warning: Simulation tolerance relaxed to achieve convergence from 4.2814032775132634e-02 to 4.2814032775132731e-02 seconds.
Warning: Simulation tolerance relaxed to achieve convergence from 4.2814032775132731e-02 to 4.2814032775132828e-02 seconds.
Warning: Simulation tolerance relaxed to achieve convergence from 4.2814032775132828e-02 to 4.2814032775132925e-02 seconds.
Warning: Simulation tolerance relaxed to achieve convergence from 4.2814032775132925e-02 to 4.2814032775133022e-02 seconds.
Warning: Simulation tolerance relaxed to achieve convergence from 4.2814032775133022e-02 to 4.2814032775133119e-02 seconds.
Warning: Simulation tolerance relaxed to achieve convergence from 4.2814032775133119e-02 to 4.2814032775133216e-02 seconds.
Warning: Simulation tolerance relaxed to achieve convergence from 4.2814032775133216e-02 to 4.2814032775133314e-02 seconds.
Warning: Simulation tolerance relaxed to achieve convergence from 4.2814032775133314e-02 to 4.2814032775133411e-02 seconds.
Warning: Simulation tolerance relaxed to achieve convergence from 4.2814032775133411e-02 to 4.2814032775133508e-02 seconds.
Warning: Simulation tolerance relaxed to achieve convergence from 4.2814032775133508e-02 to 4.2814032775133605e-02 seconds.
Warning: Simulation tolerance relaxed to achieve convergence from 4.2814032775133605e-02 to 4.2814032775133702e-02 seconds.
Warning: Simulation tolerance relaxed to achieve convergence from 4.2814032775133702e-02 to 4.2814032775133799e-02 seconds.
Warning: Simulation tolerance relaxed to achieve convergence from 4.2814032775133799e-02 to 4.2814032775133896e-02 seconds.
Warning: Simulation tolerance relaxed to achieve convergence from 4.2814032775133896e-02 to 4.2814032775133994e-02 seconds.
Warning: Simulation tolerance relaxed to achieve convergence from 4.2814032775134091e-02 to 4.2814032775134188e-02 seconds.
Warning: Simulation tolerance relaxed to achieve convergence from 4.2814032775134389e-02 to 4.2814032775134486e-02 seconds.
Warning: Simulation tolerance relaxed to achieve convergence from 4.2814032775134486e-02 to 4.2814032775134583e-02 seconds.
Warning: Simulation tolerance relaxed to achieve convergence from 4.2814032775134882e-02 to 4.2814032775134979e-02 seconds.
Warning: Simulation tolerance relaxed to achieve convergence from 4.2814032775134979e-02 to 4.2814032775135076e-02 seconds.
Warning: Simulation tolerance relaxed to achieve convergence from 4.2814032775135076e-02 to 4.2814032775135173e-02 seconds.
[...]
Warning: Simulation tolerance relaxed to achieve convergence from 4.2814032775221673e-02 to 4.2814032775221771e-02 seconds.
Warning: Simulation tolerance relaxed to achieve convergence from 4.2814032775221972e-02 to 4.2814032775222069e-02 seconds.
Warning: Simulation tolerance relaxed to achieve convergence from 4.2814032775222069e-02 to 4.2814032775222166e-02 seconds.
Warning: Simulation tolerance relaxed to achieve convergence from 4.2814032775222166e-02 to 4.2814032775222263e-02 seconds.
Warning: Simulation tolerance relaxed to achieve convergence from 4.2814032775222263e-02 to 4.2814032775222360e-02 seconds.
Warning: Simulation tolerance relaxed to achieve convergence from 4.2814032775222360e-02 to 4.2814032775222458e-02 seconds.
Warning: Simulation tolerance relaxed to achieve convergence from 4.2814032775222458e-02 to 4.2814032775222555e-02 seconds.
Warning: Simulation tolerance relaxed to achieve convergence from 4.2814032775222555e-02 to 4.2814032775222652e-02 seconds.
Warning: Simulation tolerance relaxed to achieve convergence from 4.2814032775222652e-02 to 4.2814032775222749e-02 seconds.
Warning: Simulation tolerance relaxed to achieve convergence from 4.2814032775222749e-02 to 4.2814032775222846e-02 seconds.
Warning: Simulation tolerance relaxed to achieve convergence from 4.2814032775222846e-02 to 4.2814032775222943e-02 seconds.
Warning: Simulation tolerance relaxed to achieve convergence from 4.2814032775222943e-02 to 4.2814032775223040e-02 seconds.
Warning: Simulation tolerance relaxed to achieve convergence from 4.2814032775223040e-02 to 4.2814032775223138e-02 seconds.
Warning: Simulation tolerance relaxed to achieve convergence from 4.2814032775223138e-02 to 4.2814032775223235e-02 seconds.
Warning: Simulation tolerance relaxed to achieve convergence from 4.2814032775223235e-02 to 4.2814032775223332e-02 seconds.
Warning: Simulation tolerance relaxed to achieve convergence from 4.2814032775223429e-02 to 4.2814032775223526e-02 seconds.
Warning: Simulation tolerance relaxed to achieve convergence from 4.2814032775223526e-02 to 4.2814032775223623e-02 seconds.
Warning: Simulation tolerance relaxed to achieve convergence from 4.2814032775223922e-02 to 4.2814032775224019e-02 seconds.
Warning: Simulation tolerance relaxed to achieve convergence from 4.2814032775224019e-02 to 4.2814032775224116e-02 seconds.
Warning: Simulation tolerance relaxed to achieve convergence from 4.2814032775224116e-02 to 4.2814032775224213e-02 seconds.
Warning: Simulation tolerance relaxed to achieve convergence from 4.2814032775224213e-02 to 4.2814032775224310e-02 seconds.
Warning: Simulation tolerance relaxed to achieve convergence from 4.2814032775224310e-02 to 4.2814032775224407e-02 seconds.
Warning: Simulation tolerance relaxed to achieve convergence from 4.2814032775224407e-02 to 4.2814032775224505e-02 seconds.
Warning: Simulation tolerance relaxed to achieve convergence from 4.2814032775224505e-02 to 4.2814032775224602e-02 seconds.
Warning: Simulation tolerance relaxed to achieve convergence from 4.2814032775224803e-02 to 4.2814032775224900e-02 seconds.
Warning: Simulation tolerance relaxed to achieve convergence from 4.2814032775224900e-02 to 4.2814032775224997e-02 seconds.
Warning: Simulation tolerance relaxed to achieve convergence from 4.2814032775224997e-02 to 4.2814032775225094e-02 seconds.
Warning: Simulation tolerance relaxed to achieve convergence from 4.2814032775225094e-02 to 4.2814032775225191e-02 seconds.
Warning: Simulation tolerance relaxed to achieve convergence from 4.2814032775225289e-02 to 4.2814032775225386e-02 seconds.
Warning: Simulation tolerance relaxed to achieve convergence from 4.2814032775225386e-02 to 4.2814032775225483e-02 seconds.
Warning: Simulation tolerance relaxed to achieve convergence from 4.2814032775225580e-02 to 4.2814032775225677e-02 seconds.
Warning: Simulation tolerance relaxed to achieve convergence from 4.2814032775225677e-02 to 4.2814032775225774e-02 seconds.
Warning: Simulation tolerance relaxed to achieve convergence from 4.2814032775226073e-02 to 4.2814032775226170e-02 seconds.
Warning: Simulation tolerance relaxed to achieve convergence from 4.2814032775226468e-02 to 4.2814032775226565e-02 seconds.
Warning: Simulation tolerance relaxed to achieve convergence from 4.2814032775226565e-02 to 4.2814032775226663e-02 seconds.
Warning: Simulation tolerance relaxed to achieve convergence from 4.2814032775226663e-02 to 4.2814032775226760e-02 seconds.
Warning: Simulation tolerance relaxed to achieve convergence from 4.2814032775226857e-02 to 4.2814032775226954e-02 seconds.
Warning: Simulation tolerance relaxed to achieve convergence from 4.2814032775227051e-02 to 4.2814032775227148e-02 seconds.
Warning: Simulation tolerance relaxed to achieve convergence from 4.2814032775227148e-02 to 4.2814032775227245e-02 seconds.
Warning: Simulation tolerance relaxed to achieve convergence from 4.2814032775227343e-02 to 4.2814032775227440e-02 seconds.
Warning: Simulation tolerance relaxed to achieve convergence from 4.2814032775227440e-02 to 4.2814032775227537e-02 seconds.
Warning: Simulation tolerance relaxed to achieve convergence from 4.2814032775227537e-02 to 4.2814032775227634e-02 seconds.
Warning: Simulation tolerance relaxed to achieve convergence from 4.2814032775227634e-02 to 4.2814032775227731e-02 seconds.
Warning: Simulation tolerance relaxed to achieve convergence from 4.2814032775227828e-02 to 4.2814032775227925e-02 seconds.
Warning: Simulation tolerance relaxed to achieve convergence from 4.2814032775227925e-02 to 4.2814032775228023e-02 seconds.
Warning: Simulation tolerance relaxed to achieve convergence from 4.2814032775228023e-02 to 4.2814032775228120e-02 seconds.
Warning: Simulation tolerance relaxed to achieve convergence from 4.2814032775228217e-02 to 4.2814032775228314e-02 seconds.
Warning: Simulation tolerance relaxed to achieve convergence from 4.2814032775228314e-02 to 4.2814032775228411e-02 seconds.
Warning: Simulation tolerance relaxed to achieve convergence from 4.2814032775228709e-02 to 4.2814032775228807e-02 seconds.
Warning: Simulation tolerance relaxed to achieve convergence from 4.2814032775228807e-02 to 4.2814032775228904e-02 seconds.
Warning: Simulation tolerance relaxed to achieve convergence from 4.2814032775229001e-02 to 4.2814032775229098e-02 seconds.
Warning: Simulation tolerance relaxed to achieve convergence from 4.2814032775229098e-02 to 4.2814032775229195e-02 seconds.
Warning: Simulation tolerance relaxed to achieve convergence from 4.2814032775229195e-02 to 4.2814032775229292e-02 seconds.
Warning: Simulation tolerance relaxed to achieve convergence from 4.2814032775229494e-02 to 4.2814032775229591e-02 seconds.
Warning: Simulation tolerance relaxed to achieve convergence from 4.2814032775229591e-02 to 4.2814032775229688e-02 seconds.
Warning: Simulation tolerance relaxed to achieve convergence from 4.2814032775229785e-02 to 4.2814032775229882e-02 seconds.
Warning: Simulation tolerance relaxed to achieve convergence from 4.2814032775229882e-02 to 4.2814032775229979e-02 seconds.
Warning: Simulation tolerance relaxed to achieve convergence from 4.2814032775230076e-02 to 4.2814032775230174e-02 seconds.
Warning: Simulation tolerance relaxed to achieve convergence from 4.2814032775230174e-02 to 4.2814032775230271e-02 seconds.
Warning: Simulation tolerance relaxed to achieve convergence from 4.2814032775230666e-02 to 4.2814032775230763e-02 seconds.
Warning: Simulation tolerance relaxed to achieve convergence from 4.2814032775230763e-02 to 4.2814032775230861e-02 seconds.
Warning: Simulation tolerance relaxed to achieve convergence from 4.2814032775230958e-02 to 4.2814032775231055e-02 seconds.
Warning: Simulation tolerance relaxed to achieve convergence from 4.2814032775231152e-02 to 4.2814032775231249e-02 seconds.
Warning: Simulation tolerance relaxed to achieve convergence from 4.2814032775231450e-02 to 4.2814032775231547e-02 seconds.
Warning: Simulation tolerance relaxed to achieve convergence from 4.2814032775231547e-02 to 4.2814032775231645e-02 seconds.
Warning: Simulation tolerance relaxed to achieve convergence from 4.2814032775231645e-02 to 4.2814032775231742e-02 seconds.
Warning: Simulation tolerance relaxed to achieve convergence from 4.2814032775231943e-02 to 4.2814032775232040e-02 seconds.
Warning: Simulation tolerance relaxed to achieve convergence from 4.2814032775232040e-02 to 4.2814032775232137e-02 seconds.
Warning: Simulation tolerance relaxed to achieve convergence from 4.2814032775232234e-02 to 4.2814032775232332e-02 seconds.
Warning: Simulation tolerance relaxed to achieve convergence from 4.2814032775232332e-02 to 4.2814032775232429e-02 seconds.
Warning: Simulation tolerance relaxed to achieve convergence from 4.2814032775232429e-02 to 4.2814032775232526e-02 seconds.
Warning: Simulation tolerance relaxed to achieve convergence from 4.2814032775232526e-02 to 4.2814032775232623e-02 seconds.
Warning: Simulation tolerance relaxed to achieve convergence from 4.2814032775232623e-02 to 4.2814032775232720e-02 seconds.
Warning: Simulation tolerance relaxed to achieve convergence from 4.2814032775232720e-02 to 4.2814032775232817e-02 seconds.
Warning: Simulation tolerance relaxed to achieve convergence from 4.2814032775232817e-02 to 4.2814032775232914e-02 seconds.
Warning: Simulation tolerance relaxed to achieve convergence from 4.2814032775233012e-02 to 4.2814032775233109e-02 seconds.
Warning: Simulation tolerance relaxed to achieve convergence from 4.2814032775233109e-02 to 4.2814032775233206e-02 seconds.
Warning: Simulation tolerance relaxed to achieve convergence from 4.2814032775233206e-02 to 4.2814032775233303e-02 seconds.
Warning: Simulation tolerance relaxed to achieve convergence from 4.2814032775233303e-02 to 4.2814032775233400e-02 seconds.
Warning: Simulation tolerance relaxed to achieve convergence from 4.2814032775233400e-02 to 4.2814032775233497e-02 seconds.
Warning: Simulation tolerance relaxed to achieve convergence from 4.2814032775233594e-02 to 4.2814032775233692e-02 seconds.
Warning: Simulation tolerance relaxed to achieve convergence from 4.2814032775233789e-02 to 4.2814032775233886e-02 seconds.
Warning: Simulation tolerance relaxed to achieve convergence from 4.2814032775233886e-02 to 4.2814032775233983e-02 seconds.
Warning: Simulation tolerance relaxed to achieve convergence from 4.2814032775234184e-02 to 4.2814032775234281e-02 seconds.
Warning: Simulation tolerance relaxed to achieve convergence from 4.2814032775234281e-02 to 4.2814032775234379e-02 seconds.
Warning: Simulation tolerance relaxed to achieve convergence from 4.2814032775234379e-02 to 4.2814032775234476e-02 seconds.
Warning: Simulation tolerance relaxed to achieve convergence from 4.2814032775234476e-02 to 4.2814032775234573e-02 seconds.
Warning: Simulation tolerance relaxed to achieve convergence from 4.2814032775234767e-02 to 4.2814032775234864e-02 seconds.
Warning: Simulation tolerance relaxed to achieve convergence from 4.2814032775234864e-02 to 4.2814032775234961e-02 seconds.
Warning: Simulation tolerance relaxed to achieve convergence from 4.2814032775235163e-02 to 4.2814032775235260e-02 seconds.
Warning: Simulation tolerance relaxed to achieve convergence from 4.2814032775235260e-02 to 4.2814032775235357e-02 seconds.
Warning: Simulation tolerance relaxed to achieve convergence from 4.2814032775235357e-02 to 4.2814032775235454e-02 seconds.
Warning: Simulation tolerance relaxed to achieve convergence from 4.2814032775235454e-02 to 4.2814032775235551e-02 seconds.
Warning: Simulation tolerance relaxed to achieve convergence from 4.2814032775235551e-02 to 4.2814032775235648e-02 seconds.
Warning: Simulation tolerance relaxed to achieve convergence from 4.2814032775235648e-02 to 4.2814032775235746e-02 seconds.
Warning: Simulation tolerance relaxed to achieve convergence from 4.2814032775235746e-02 to 4.2814032775235843e-02 seconds.
Warning: Simulation tolerance relaxed to achieve convergence from 4.2814032775235843e-02 to 4.2814032775235940e-02 seconds.
Warning: Simulation tolerance relaxed to achieve convergence from 4.2814032775235940e-02 to 4.2814032775236037e-02 seconds.
Warning: Simulation tolerance relaxed to achieve convergence from 4.2814032775236037e-02 to 4.2814032775236134e-02 seconds.
Warning: Simulation tolerance relaxed to achieve convergence from 4.2814032775236231e-02 to 4.2814032775236328e-02 seconds.
Warning: Simulation tolerance relaxed to achieve convergence from 4.2814032775236328e-02 to 4.2814032775236426e-02 seconds.
Warning: Simulation tolerance relaxed to achieve convergence from 4.2814032775236426e-02 to 4.2814032775236523e-02 seconds.
Warning: Simulation tolerance relaxed to achieve convergence from 4.2814032775236523e-02 to 4.2814032775236620e-02 seconds.
Warning: Simulation tolerance relaxed to achieve convergence from 4.2814032775236620e-02 to 4.2814032775236717e-02 seconds.
Warning: Simulation tolerance relaxed to achieve convergence from 4.2814032775236717e-02 to 4.2814032775236814e-02 seconds.
Warning: Simulation tolerance relaxed to achieve convergence from 4.2814032775236814e-02 to 4.2814032775236911e-02 seconds.
Warning: Simulation tolerance relaxed to achieve convergence from 4.2814032775236911e-02 to 4.2814032775237008e-02 seconds.
Warning: Simulation tolerance relaxed to achieve convergence from 4.2814032775237008e-02 to 4.2814032775237106e-02 seconds.
Warning: Simulation tolerance relaxed to achieve convergence from 4.2814032775237106e-02 to 4.2814032775237203e-02 seconds.
Warning: Simulation tolerance relaxed to achieve convergence from 4.2814032775237203e-02 to 4.2814032775237300e-02 seconds.
Warning: Simulation tolerance relaxed to achieve convergence from 4.2814032775237300e-02 to 4.2814032775237397e-02 seconds.
Warning: Simulation tolerance relaxed to achieve convergence from 4.2814032775237494e-02 to 4.2814032775237591e-02 seconds.
Warning: Simulation tolerance relaxed to achieve convergence from 4.2814032775237591e-02 to 4.2814032775237688e-02 seconds.
Warning: Simulation tolerance relaxed to achieve convergence from 4.2814032775237890e-02 to 4.2814032775237987e-02 seconds.
Warning: Simulation tolerance relaxed to achieve convergence from 4.2814032775237987e-02 to 4.2814032775238084e-02 seconds.
Warning: Simulation tolerance relaxed to achieve convergence from 4.2814032775238084e-02 to 4.2814032775238181e-02 seconds.
Warning: Simulation tolerance relaxed to achieve convergence from 4.2814032775238181e-02 to 4.2814032775238278e-02 seconds.
Warning: Simulation tolerance relaxed to achieve convergence from 4.2814032775238479e-02 to 4.2814032775238577e-02 seconds.
Warning: Simulation tolerance relaxed to achieve convergence from 4.2814032775238577e-02 to 4.2814032775238674e-02 seconds.
Warning: Simulation tolerance relaxed to achieve convergence from 4.2814032775238771e-02 to 4.2814032775238868e-02 seconds.
Warning: Simulation tolerance relaxed to achieve convergence from 4.2814032775238868e-02 to 4.2814032775238965e-02 seconds.
Warning: Simulation tolerance relaxed to achieve convergence from 4.2814032775238965e-02 to 4.2814032775239062e-02 seconds.
Warning: Simulation tolerance relaxed to achieve convergence from 4.2814032775239159e-02 to 4.2814032775239257e-02 seconds.
Warning: Simulation tolerance relaxed to achieve convergence from 4.2814032775239257e-02 to 4.2814032775239354e-02 seconds.
Warning: Simulation tolerance relaxed to achieve convergence from 4.2814032775239451e-02 to 4.2814032775239548e-02 seconds.
Warning: Simulation tolerance relaxed to achieve convergence from 4.2814032775239548e-02 to 4.2814032775239645e-02 seconds.
Warning: Simulation tolerance relaxed to achieve convergence from 4.2814032775240145e-02 to 4.2814032775240242e-02 seconds.
Warning: Simulation tolerance relaxed to achieve convergence from 4.2814032775240242e-02 to 4.2814032775240339e-02 seconds.
Warning: Simulation tolerance relaxed to achieve convergence from 4.2814032775240436e-02 to 4.2814032775240533e-02 seconds.
Warning: Simulation tolerance relaxed to achieve convergence from 4.2814032775240533e-02 to 4.2814032775240631e-02 seconds.
Warning: Simulation tolerance relaxed to achieve convergence from 4.2814032775240631e-02 to 4.2814032775240728e-02 seconds.
Warning: Simulation tolerance relaxed to achieve convergence from 4.2814032775240728e-02 to 4.2814032775240825e-02 seconds.
Warning: Simulation tolerance relaxed to achieve convergence from 4.2814032775240922e-02 to 4.2814032775241019e-02 seconds.
Warning: Simulation tolerance relaxed to achieve convergence from 4.2814032775241019e-02 to 4.2814032775241116e-02 seconds.
Warning: Simulation tolerance relaxed to achieve convergence from 4.2814032775241116e-02 to 4.2814032775241213e-02 seconds.
Warning: Simulation tolerance relaxed to achieve convergence from 4.2814032775241213e-02 to 4.2814032775241311e-02 seconds.
Warning: Simulation tolerance relaxed to achieve convergence from 4.2814032775241609e-02 to 4.2814032775241706e-02 seconds.
Warning: Simulation tolerance relaxed to achieve convergence from 4.2814032775241706e-02 to 4.2814032775241803e-02 seconds.
Warning: Simulation tolerance relaxed to achieve convergence from 4.2814032775241900e-02 to 4.2814032775241997e-02 seconds.
Warning: Simulation tolerance relaxed to achieve convergence from 4.2814032775241997e-02 to 4.2814032775242095e-02 seconds.
Warning: Simulation tolerance relaxed to achieve convergence from 4.2814032775242095e-02 to 4.2814032775242192e-02 seconds.
Warning: Simulation tolerance relaxed to achieve convergence from 4.2814032775242192e-02 to 4.2814032775242289e-02 seconds.
Warning: Simulation tolerance relaxed to achieve convergence from 4.2814032775242289e-02 to 4.2814032775242386e-02 seconds.
Warning: Simulation tolerance relaxed to achieve convergence from 4.2814032775242483e-02 to 4.2814032775242580e-02 seconds.
Warning: Simulation tolerance relaxed to achieve convergence from 4.2814032775242580e-02 to 4.2814032775242677e-02 seconds.
Warning: Simulation tolerance relaxed to achieve convergence from 4.2814032775242677e-02 to 4.2814032775242775e-02 seconds.
Warning: Simulation tolerance relaxed to achieve convergence from 4.2814032775242976e-02 to 4.2814032775243073e-02 seconds.
Warning: Simulation tolerance relaxed to achieve convergence from 4.2814032775243073e-02 to 4.2814032775243170e-02 seconds.
Warning: Simulation tolerance relaxed to achieve convergence from 4.2814032775243170e-02 to 4.2814032775243267e-02 seconds.
Warning: Simulation tolerance relaxed to achieve convergence from 4.2814032775243267e-02 to 4.2814032775243364e-02 seconds.
Warning: Simulation tolerance relaxed to achieve convergence from 4.2814032775243364e-02 to 4.2814032775243462e-02 seconds.
Warning: Simulation tolerance relaxed to achieve convergence from 4.2814032775243760e-02 to 4.2814032775243857e-02 seconds.
Warning: Simulation tolerance relaxed to achieve convergence from 4.2814032775243857e-02 to 4.2814032775243954e-02 seconds.
Warning: Simulation tolerance relaxed to achieve convergence from 4.2814032775243954e-02 to 4.2814032775244051e-02 seconds.
Warning: Simulation tolerance relaxed to achieve convergence from 4.2814032775244051e-02 to 4.2814032775244149e-02 seconds.
Warning: Simulation tolerance relaxed to achieve convergence from 4.2814032775244149e-02 to 4.2814032775244246e-02 seconds.
Warning: Simulation tolerance relaxed to achieve convergence from 4.2814032775244246e-02 to 4.2814032775244343e-02 seconds.
Warning: Simulation tolerance relaxed to achieve convergence from 4.2814032775244440e-02 to 4.2814032775244440e-02 seconds.

Simulation stopped by user.
Total elapsed time: 50.816 seconds.

Files loaded:
E:\Documents\Masters\Project\Simulation\LM5104.net
C:\Users\conor\AppData\Local\LTspice\lib\cmp\standard.dio
C:\Users\conor\AppData\Local\LTspice\lib\sub\Contrib\Nexperia\nmos\PSMN1R2-30YLD.lib
E:\Documents\Masters\Project\Simulation\LM5104_PSPICE_TRANS\LM5104_TRANS.lib

