LTspice 24.1.9 for Windows
Circuit: E:\Documents\Masters\Project\Simulation\PWMTest.net
Start Time: Wed Oct  8 11:16:59 2025
solver = Normal
Maximum thread count: 12
tnom = 27
temp = 27
method = trap
E:\Documents\Masters\Project\Simulation\PWMTest.net(14): Limiting fall time to 1.01644e-20.

V2 N003 0 PULSE(0 1 0 {1/FREQ} 0 0 {1/FREQ})
^^^^^^^^^^^^^^^^^^^^^^^^^^^^^^^^^^^^^^^^^^^^
Direct Newton iteration for .op point succeeded.
Total elapsed time: 3.105 seconds.

Files loaded:
E:\Documents\Masters\Project\Simulation\PWMTest.net
C:\Users\conor\AppData\Local\LTspice\lib\cmp\standard.dio

