LTspice 24.1.9 for Windows
Circuit: E:\Documents\Masters\Project\Simulation\Soft Start\LT4256-1.net
Start Time: Mon Dec  1 00:06:31 2025
solver = Normal
Maximum thread count: 12
tnom = 27
temp = 27
method = trap
C3: Increased Cpar to 4.7e-09
WARNING: Node n001 is floating.

Direct Newton iteration for .op point succeeded.
Total elapsed time: 0.153 seconds.

Files loaded:
E:\Documents\Masters\Project\Simulation\Soft Start\LT4256-1.net
C:\Users\conor\AppData\Local\LTspice\lib\cmp\standard.mos
C:\Users\conor\AppData\Local\LTspice\lib\sub\LT4256-1.sub

