LTspice 24.1.9 for Windows
Circuit: E:\Documents\Masters\Project\Simulation\Soft Start\LTC4380-4.net
Start Time: Mon Dec  1 11:23:20 2025
solver = Normal
Maximum thread count: 12
tnom = 27
temp = 27
method = trap
WARNING: Node n001 is floating.

Direct Newton iteration failed to find .op point.  (Use ".option noopiter" to skip.)
Starting Gmin stepping
Gmin = 10
Gmin = 1.07374
Gmin = 0.115292
Gmin = 0.0123794
Gmin = 0.00132923
Gmin = 0.000142725
Gmin = 1.5325e-05
Gmin = 1.6455e-06
Gmin = 1.76685e-07
Gmin = 1.89714e-08
Gmin = 2.03704e-09
Gmin = 2.18725e-10
Gmin = 2.34854e-11
Gmin = 2.52173e-12
Gmin = 2.70769e-13
Gmin = 0
Gmin stepping succeeded in finding the operating point.

Total elapsed time: 0.758 seconds.

Files loaded:
E:\Documents\Masters\Project\Simulation\Soft Start\LTC4380-4.net
C:\Users\conor\AppData\Local\LTspice\lib\cmp\standard.dio
C:\Users\conor\AppData\Local\LTspice\lib\cmp\standard.mos
C:\Users\conor\AppData\Local\LTspice\lib\sub\LTC4380-4.sub

