LTspice 24.1.9 for Windows
Circuit: E:\Documents\Masters\Project\Simulation\EPC\EPC23101\Draft1.net
Start Time: Sat Oct 18 13:40:25 2025
solver = Normal
Maximum thread count: 12
tnom = 27
temp = 27
method = trap
Direct Newton iteration for .op point succeeded.
Total elapsed time: 0.056 seconds.

Files loaded:
E:\Documents\Masters\Project\Simulation\EPC\EPC23101\Draft1.net

