LTspice 24.1.9 for Windows
Circuit: E:\Documents\Masters\Project\Simulation\EPC\EPC23101\EPC23101_sim.net
Start Time: Wed Oct  8 11:36:36 2025
solver = Normal
Maximum thread count: 12
tnom = 27
temp = 25
method = trap
Direct Newton iteration for .op point succeeded.
Total elapsed time: 9.684 seconds.

Files loaded:
E:\Documents\Masters\Project\Simulation\EPC\EPC23101\EPC23101_sim.net
E:\Documents\Masters\Project\Simulation\EPC\EPC23101\EPC23101_model.net
E:\Documents\Masters\Project\Simulation\EPC\EPC23101\EPCGaNLibrary.lib

